           6
#DEBUG libFireCore::firecore_init() 
C       0.45099900      3.38807500      0.02566600
C       0.21101400      4.56933100      0.01217900
C      -0.25477800      1.06137100     -0.00335800
C       0.74404400      1.96555300      0.04224800
H      -1.51379800      1.84867600     -0.05241800
H       1.97585600      1.46667600      0.09580600
