8
lvs 64.0 0.0 0.0 0.0 64.0 0.0 0.0 0.0 64.0
C      1.31227    0.08302   -0.00002 0.0
C      2.84377    0.43960   -0.15657 0.0
H      2.77150    1.54735   -0.13131 0.0
H      2.77520    0.04685    0.87977 0.0
H      3.82303    0.14875   -0.59180 0.0
H      0.69157    0.95328    0.30056 0.0
H      1.01010   -0.24550   -1.01675 0.0
H      1.14377   -0.74867    0.71610 0.0
