14
lvs 64.0 0.0 0.0 0.0 64.0 0.0 0.0 0.0 64.0
    C      3.40383545      0.64150786     -0.49436358      4.25972861
    H      5.31469386      4.95290761     -0.41150653      0.79010452
    C      4.69487864      1.09449214      0.00266463      3.47413322
    C      2.74866942      2.94172034     -0.99028344      4.30428366
    C      2.48506754      1.54359715     -0.96472767      4.01074104
    N      4.32600424      4.73777720     -0.45513619      5.39871768
    O      5.61413136      0.39435033      0.44996820      6.57097584
    C      3.97680624      3.39370984     -0.52257795      3.67190483
    H      3.18813293     -0.42194081     -0.48196066      0.89838385
    H      1.52107208      1.19541638     -1.33407359      0.92659789
    H      3.78384448      5.37397919     -1.02702811      0.78188595
    N      4.89748891      2.50149513     -0.04597696      5.22300031
    H      2.01911951      3.65010261     -1.36439129      0.91132690
    H      5.78699795      2.84618986      0.30294556      0.77821570
