13
lvs 64.0 0.0 0.0 0.0 64.0 0.0 0.0 0.0 64.0
    C      4.65023775      2.58209633     -1.18386712      3.71051250
    N      5.69069540      3.43339355     -1.59625383      5.40839907
    C      4.74186779      1.34754616     -0.56057004      4.28340068
    N      3.33346148      2.91705139     -1.44630223      5.50108769
    C      2.62031990      1.88130071     -0.96902876      3.60508904
    H      0.78229303      1.29176176     -0.28681188      0.80998686
    N      3.40423801      0.91291872     -0.42880053      5.15728946
    H      6.52232024      3.39397727     -1.01587633      0.81448419
    H      5.36406340      4.38358001     -1.73229585      0.79630039
    H      5.56821201      0.76381359     -0.18382741      0.90018100
    N      1.22391157      1.77148238     -1.06531419      5.42825564
    H      3.09474965      0.04096857     -0.02004274      0.80004585
    H      0.79478570      2.67203616     -1.24868588      0.78496763
