15
lvs 64.0 0.0 0.0 0.0 64.0 0.0 0.0 0.0 64.0
    C      1.98452230     -0.10903670     -0.07008397      3.43325466
    C      3.48191577     -0.01410515     -0.07700748      4.13585415
    C      3.52520826     -2.44806797     -0.01252863      4.06103912
    C      4.21001250     -1.15752647     -0.04748321      3.93852411
    C      2.07682854     -2.47283689     -0.01524578      3.86312191
    H      1.55574756     -3.43878241      0.00561146      0.91858136
    H      3.94412238      0.97213288     -0.10141311      0.89485991
    O      1.30040602      0.91393485     -0.08692515      6.42320276
    N      1.34743189     -1.38843428     -0.04240067      5.35893002
    C      5.64778206     -1.44314734     -0.03784046      4.11206148
    C      4.48489979     -3.43117550      0.01752785      4.05541759
    C      5.79686644     -2.79650446      0.00159737      4.08049675
    H      6.43908921     -0.70212451     -0.05820934      0.90349911
    H      6.73899789     -3.33497140      0.01929022      0.91001211
    H      4.31070772     -4.50288450      0.04894491      0.91114496
