33
lvs 9.8   2.0    0.0  0.0  5.1    0.0  0.0  0.0   20.0
 C -2.095267 0.424068 1.766940             -0.10
 C 2.841592 2.705303 1.858312 		    0.29
 C 0.582662 3.452653 -0.714263 		    0.0 
 C 0.207386 4.598148 -0.727667 		    0.0 
 N 3.842476 2.819401 2.819490 		   -0.59
 H -4.205560 0.483380 2.640424 		    0.27
 C -1.629160 1.346907 -0.617353 	   -0.12
 C -0.839599 0.430106 2.449987 		   -0.25
 C -0.110380 1.001004 -0.681807 	    0.0 
 C 0.894094 1.949559 -0.659409 		    0.0 
 C 1.481955 2.837615 2.477543 		   -0.15
 C 2.412745 1.607617 -0.584746 		   -0.12
 C 3.118750 3.012851 4.106332 		    0.84
 C -2.499585 0.365105 4.056110 		    0.18
 C 1.651835 3.016932 3.838207 		   -0.33
 C -1.087077 0.410801 3.860817 		   -0.34
 O 3.749771 3.177461 5.287342 		   -0.40
 N -3.232862 0.262320 5.278758 		   -0.76
 H 0.908259 3.178489 4.591371 		    0.15
 H -0.363347 0.426028 4.646715 		    0.15
 H -2.714587 0.514815 6.138077 		    0.35
 H 0.111432 0.420697 1.974939 		    0.15
 H 0.560726 2.862530 1.939219 		    0.13
 H -1.765079 2.382158 -0.300706 	    0.06
 H -2.083962 1.189364 -1.592809 	    0.06
 H 2.537604 0.567476 -0.292232 		    0.06
 H 2.872939 1.758269 -1.555081 		    0.06
 H -4.256790 0.507212 5.281853 		    0.35
 N -3.143225 0.344735 2.765462 		   -0.13
 H -3.426262 0.435641 0.148013 		    0.23
 N -2.393562 0.372978 0.343012 		   -0.10
 O 4.400691 3.030791 -0.010972 		   -0.35
 C 3.240237 2.507969 0.414099 		    0.41
