15
lvs 64.0 0.0 0.0 0.0 64.0 0.0 0.0 0.0 64.0
 C    1.288293869118    0.184972590849   -0.073787217289    0.06055 
 C    1.062893869118   -1.133737409151   -0.026167217289   -0.23481 
 N   -0.204356130882   -1.637097409151    0.054962782711   -0.13598 
 C   -1.328736130882   -0.858597409151    0.094052782711    0.28636 
 N   -1.113136130882    0.488542590849    0.046202782711   -0.14255 
 C    0.110723869118    1.093852590849   -0.035287217289    0.29295 
 O   -2.452766130882   -1.344087409151    0.167082782711   -0.43910 
 C    2.642123869118    0.804952590849   -0.162687217289   -0.25142 
 O    0.233613869118    2.313352590849   -0.074737217289   -0.41999 
 H    1.867753869118   -1.862327409151   -0.049527217289    0.17812 
 H   -0.360786130882   -2.638177409151    0.090112782711    0.27943 
 H   -1.923886130882    1.085832590849    0.073652782711    0.25663 
 H    3.431443869118    0.045772590849   -0.181857217289    0.07208 
 H    2.826003869118    1.453652590849    0.699672782711    0.09916 
 H    2.732883869118    1.401932590849   -1.075757217289    0.09857 
