3

O 0.000000 -0.031652 -0.000007 -0.400000 1.661000 
H -0.811946 0.651636 0.000004 0.200000 1.487000 
H 0.811949 0.651633 0.000004 0.200000 1.487000 
3

O 0.000000 -0.031652 -0.000007 -0.400000 1.661000 
H -0.811946 0.651636 0.000004 0.200000 1.487000 
H 0.000002 0.934661 0.000009 0.200000 1.487000 
3

O 0.000000 -0.031652 -0.000007 -0.400000 1.661000 
H -0.811946 0.651636 0.000004 0.200000 1.487000 
H 0.248532 0.911755 0.000008 0.200000 1.487000 
3

O 0.000000 -0.031652 -0.000007 -0.400000 1.661000 
H -0.811946 0.651636 0.000004 0.200000 1.487000 
H 0.485281 0.844124 0.000007 0.200000 1.487000 
3

O 0.000000 -0.031652 -0.000007 -0.400000 1.661000 
H -0.811946 0.651636 0.000004 0.200000 1.487000 
H 0.699022 0.734974 0.000005 0.200000 1.487000 
3

O 0.000000 -0.031652 -0.000007 -0.400000 1.661000 
H -0.811946 0.651636 0.000004 0.200000 1.487000 
H 0.879625 0.589480 0.000003 0.200000 1.487000 
3

O 0.000000 -0.031652 -0.000007 -0.400000 1.661000 
H -0.811946 0.651636 0.000004 0.200000 1.487000 
H 1.018526 0.414540 0.000000 0.200000 1.487000 
3

O 0.000000 -0.031652 -0.000007 -0.400000 1.661000 
H -0.811946 0.651636 0.000004 0.200000 1.487000 
H 1.109142 0.218446 -0.000003 0.200000 1.487000 
3

O 0.000000 -0.031652 -0.000007 -0.400000 1.661000 
H -0.811946 0.651636 0.000004 0.200000 1.487000 
H 1.147175 0.010496 -0.000006 0.200000 1.487000 
3

O 0.000000 -0.031652 -0.000007 -0.400000 1.661000 
H -0.811946 0.651636 0.000004 0.200000 1.487000 
H 1.130822 -0.199453 -0.000010 0.200000 1.487000 
3

O 0.000000 -0.031652 -0.000007 -0.400000 1.661000 
H -0.811946 0.651636 0.000004 0.200000 1.487000 
H 1.060860 -0.401446 -0.000013 0.200000 1.487000 
