5

C 0.000000 0.000000 0.000000 0.000000 1.908000 
H 0.630886 0.000000 -0.892211 0.000000 1.487000 
H 0.630886 0.000000 0.892210 0.000000 1.487000 
H -0.630888 -0.892209 -0.000002 0.000000 1.487000 
H -0.630888 0.892209 -0.000004 0.000000 1.487000 
5
# dist 0.600 Etot -196.476
C 0.000000 0.000000 0.000000 0.000000 1.908000 
H 0.346409 0.000000 -0.489899 0.000000 1.487000 
H 0.630886 0.000000 0.892210 0.000000 1.487000 
H -0.630888 -0.892209 -0.000002 0.000000 1.487000 
H -0.630888 0.892209 -0.000004 0.000000 1.487000 
5
# dist 0.659 Etot -201.359
C 0.000000 0.000000 0.000000 0.000000 1.908000 
H 0.380579 0.000000 -0.538222 0.000000 1.487000 
H 0.630886 0.000000 0.892210 0.000000 1.487000 
H -0.630888 -0.892209 -0.000002 0.000000 1.487000 
H -0.630888 0.892209 -0.000004 0.000000 1.487000 
5
# dist 0.718 Etot -204.881
C 0.000000 0.000000 0.000000 0.000000 1.908000 
H 0.414749 0.000000 -0.586545 0.000000 1.487000 
H 0.630886 0.000000 0.892210 0.000000 1.487000 
H -0.630888 -0.892209 -0.000002 0.000000 1.487000 
H -0.630888 0.892209 -0.000004 0.000000 1.487000 
5
# dist 0.778 Etot -207.388
C 0.000000 0.000000 0.000000 0.000000 1.908000 
H 0.448918 0.000000 -0.634869 0.000000 1.487000 
H 0.630886 0.000000 0.892210 0.000000 1.487000 
H -0.630888 -0.892209 -0.000002 0.000000 1.487000 
H -0.630888 0.892209 -0.000004 0.000000 1.487000 
5
# dist 0.837 Etot -209.140
C 0.000000 0.000000 0.000000 0.000000 1.908000 
H 0.483088 0.000000 -0.683192 0.000000 1.487000 
H 0.630886 0.000000 0.892210 0.000000 1.487000 
H -0.630888 -0.892209 -0.000002 0.000000 1.487000 
H -0.630888 0.892209 -0.000004 0.000000 1.487000 
5
# dist 0.896 Etot -210.341
C 0.000000 0.000000 0.000000 0.000000 1.908000 
H 0.517257 0.000000 -0.731515 0.000000 1.487000 
H 0.630886 0.000000 0.892210 0.000000 1.487000 
H -0.630888 -0.892209 -0.000002 0.000000 1.487000 
H -0.630888 0.892209 -0.000004 0.000000 1.487000 
5
# dist 0.955 Etot -211.138
C 0.000000 0.000000 0.000000 0.000000 1.908000 
H 0.551427 0.000000 -0.779839 0.000000 1.487000 
H 0.630886 0.000000 0.892210 0.000000 1.487000 
H -0.630888 -0.892209 -0.000002 0.000000 1.487000 
H -0.630888 0.892209 -0.000004 0.000000 1.487000 
5
# dist 1.014 Etot -211.634
C 0.000000 0.000000 0.000000 0.000000 1.908000 
H 0.585597 0.000000 -0.828162 0.000000 1.487000 
H 0.630886 0.000000 0.892210 0.000000 1.487000 
H -0.630888 -0.892209 -0.000002 0.000000 1.487000 
H -0.630888 0.892209 -0.000004 0.000000 1.487000 
5
# dist 1.073 Etot -211.934
C 0.000000 0.000000 0.000000 0.000000 1.908000 
H 0.619766 0.000000 -0.876485 0.000000 1.487000 
H 0.630886 0.000000 0.892210 0.000000 1.487000 
H -0.630888 -0.892209 -0.000002 0.000000 1.487000 
H -0.630888 0.892209 -0.000004 0.000000 1.487000 
5
# dist 1.133 Etot -212.001
C 0.000000 0.000000 0.000000 0.000000 1.908000 
H 0.653936 0.000000 -0.924809 0.000000 1.487000 
H 0.630886 0.000000 0.892210 0.000000 1.487000 
H -0.630888 -0.892209 -0.000002 0.000000 1.487000 
H -0.630888 0.892209 -0.000004 0.000000 1.487000 
5
# dist 1.192 Etot -212.010
C 0.000000 0.000000 0.000000 0.000000 1.908000 
H 0.688105 0.000000 -0.973132 0.000000 1.487000 
H 0.630886 0.000000 0.892210 0.000000 1.487000 
H -0.630888 -0.892209 -0.000002 0.000000 1.487000 
H -0.630888 0.892209 -0.000004 0.000000 1.487000 
5
# dist 1.251 Etot -211.868
C 0.000000 0.000000 0.000000 0.000000 1.908000 
H 0.722275 0.000000 -1.021455 0.000000 1.487000 
H 0.630886 0.000000 0.892210 0.000000 1.487000 
H -0.630888 -0.892209 -0.000002 0.000000 1.487000 
H -0.630888 0.892209 -0.000004 0.000000 1.487000 
5
# dist 1.310 Etot -211.715
C 0.000000 0.000000 0.000000 0.000000 1.908000 
H 0.756445 0.000000 -1.069779 0.000000 1.487000 
H 0.630886 0.000000 0.892210 0.000000 1.487000 
H -0.630888 -0.892209 -0.000002 0.000000 1.487000 
H -0.630888 0.892209 -0.000004 0.000000 1.487000 
5
# dist 1.369 Etot -211.460
C 0.000000 0.000000 0.000000 0.000000 1.908000 
H 0.790614 0.000000 -1.118102 0.000000 1.487000 
H 0.630886 0.000000 0.892210 0.000000 1.487000 
H -0.630888 -0.892209 -0.000002 0.000000 1.487000 
H -0.630888 0.892209 -0.000004 0.000000 1.487000 
5
# dist 1.429 Etot -211.229
C 0.000000 0.000000 0.000000 0.000000 1.908000 
H 0.824784 0.000000 -1.166425 0.000000 1.487000 
H 0.630886 0.000000 0.892210 0.000000 1.487000 
H -0.630888 -0.892209 -0.000002 0.000000 1.487000 
H -0.630888 0.892209 -0.000004 0.000000 1.487000 
5
# dist 1.488 Etot -210.919
C 0.000000 0.000000 0.000000 0.000000 1.908000 
H 0.858954 0.000000 -1.214749 0.000000 1.487000 
H 0.630886 0.000000 0.892210 0.000000 1.487000 
H -0.630888 -0.892209 -0.000002 0.000000 1.487000 
H -0.630888 0.892209 -0.000004 0.000000 1.487000 
5
# dist 1.547 Etot -210.645
C 0.000000 0.000000 0.000000 0.000000 1.908000 
H 0.893123 0.000000 -1.263072 0.000000 1.487000 
H 0.630886 0.000000 0.892210 0.000000 1.487000 
H -0.630888 -0.892209 -0.000002 0.000000 1.487000 
H -0.630888 0.892209 -0.000004 0.000000 1.487000 
5
# dist 1.606 Etot -210.314
C 0.000000 0.000000 0.000000 0.000000 1.908000 
H 0.927293 0.000000 -1.311395 0.000000 1.487000 
H 0.630886 0.000000 0.892210 0.000000 1.487000 
H -0.630888 -0.892209 -0.000002 0.000000 1.487000 
H -0.630888 0.892209 -0.000004 0.000000 1.487000 
5
# dist 1.665 Etot -210.028
C 0.000000 0.000000 0.000000 0.000000 1.908000 
H 0.961462 0.000000 -1.359719 0.000000 1.487000 
H 0.630886 0.000000 0.892210 0.000000 1.487000 
H -0.630888 -0.892209 -0.000002 0.000000 1.487000 
H -0.630888 0.892209 -0.000004 0.000000 1.487000 
5
# dist 1.724 Etot -209.728
C 0.000000 0.000000 0.000000 0.000000 1.908000 
H 0.995632 0.000000 -1.408042 0.000000 1.487000 
H 0.630886 0.000000 0.892210 0.000000 1.487000 
H -0.630888 -0.892209 -0.000002 0.000000 1.487000 
H -0.630888 0.892209 -0.000004 0.000000 1.487000 
5
# dist 1.784 Etot -209.389
C 0.000000 0.000000 0.000000 0.000000 1.908000 
H 1.029802 0.000000 -1.456365 0.000000 1.487000 
H 0.630886 0.000000 0.892210 0.000000 1.487000 
H -0.630888 -0.892209 -0.000002 0.000000 1.487000 
H -0.630888 0.892209 -0.000004 0.000000 1.487000 
5
# dist 1.843 Etot -209.109
C 0.000000 0.000000 0.000000 0.000000 1.908000 
H 1.063971 0.000000 -1.504689 0.000000 1.487000 
H 0.630886 0.000000 0.892210 0.000000 1.487000 
H -0.630888 -0.892209 -0.000002 0.000000 1.487000 
H -0.630888 0.892209 -0.000004 0.000000 1.487000 
5
# dist 1.902 Etot -208.825
C 0.000000 0.000000 0.000000 0.000000 1.908000 
H 1.098141 0.000000 -1.553012 0.000000 1.487000 
H 0.630886 0.000000 0.892210 0.000000 1.487000 
H -0.630888 -0.892209 -0.000002 0.000000 1.487000 
H -0.630888 0.892209 -0.000004 0.000000 1.487000 
5
# dist 1.961 Etot -208.511
C 0.000000 0.000000 0.000000 0.000000 1.908000 
H 1.132311 0.000000 -1.601335 0.000000 1.487000 
H 0.630886 0.000000 0.892210 0.000000 1.487000 
H -0.630888 -0.892209 -0.000002 0.000000 1.487000 
H -0.630888 0.892209 -0.000004 0.000000 1.487000 
5
# dist 2.020 Etot -208.251
C 0.000000 0.000000 0.000000 0.000000 1.908000 
H 1.166480 0.000000 -1.649658 0.000000 1.487000 
H 0.630886 0.000000 0.892210 0.000000 1.487000 
H -0.630888 -0.892209 -0.000002 0.000000 1.487000 
H -0.630888 0.892209 -0.000004 0.000000 1.487000 
5
# dist 2.080 Etot -207.990
C 0.000000 0.000000 0.000000 0.000000 1.908000 
H 1.200650 0.000000 -1.697982 0.000000 1.487000 
H 0.630886 0.000000 0.892210 0.000000 1.487000 
H -0.630888 -0.892209 -0.000002 0.000000 1.487000 
H -0.630888 0.892209 -0.000004 0.000000 1.487000 
5
# dist 2.139 Etot -207.734
C 0.000000 0.000000 0.000000 0.000000 1.908000 
H 1.234819 0.000000 -1.746305 0.000000 1.487000 
H 0.630886 0.000000 0.892210 0.000000 1.487000 
H -0.630888 -0.892209 -0.000002 0.000000 1.487000 
H -0.630888 0.892209 -0.000004 0.000000 1.487000 
5
# dist 2.198 Etot -207.458
C 0.000000 0.000000 0.000000 0.000000 1.908000 
H 1.268989 0.000000 -1.794628 0.000000 1.487000 
H 0.630886 0.000000 0.892210 0.000000 1.487000 
H -0.630888 -0.892209 -0.000002 0.000000 1.487000 
H -0.630888 0.892209 -0.000004 0.000000 1.487000 
5
# dist 2.257 Etot -207.231
C 0.000000 0.000000 0.000000 0.000000 1.908000 
H 1.303159 0.000000 -1.842952 0.000000 1.487000 
H 0.630886 0.000000 0.892210 0.000000 1.487000 
H -0.630888 -0.892209 -0.000002 0.000000 1.487000 
H -0.630888 0.892209 -0.000004 0.000000 1.487000 
5
# dist 2.316 Etot -207.010
C 0.000000 0.000000 0.000000 0.000000 1.908000 
H 1.337328 0.000000 -1.891275 0.000000 1.487000 
H 0.630886 0.000000 0.892210 0.000000 1.487000 
H -0.630888 -0.892209 -0.000002 0.000000 1.487000 
H -0.630888 0.892209 -0.000004 0.000000 1.487000 
5
# dist 2.376 Etot -206.799
C 0.000000 0.000000 0.000000 0.000000 1.908000 
H 1.371498 0.000000 -1.939598 0.000000 1.487000 
H 0.630886 0.000000 0.892210 0.000000 1.487000 
H -0.630888 -0.892209 -0.000002 0.000000 1.487000 
H -0.630888 0.892209 -0.000004 0.000000 1.487000 
5
# dist 2.435 Etot -206.578
C 0.000000 0.000000 0.000000 0.000000 1.908000 
H 1.405668 0.000000 -1.987922 0.000000 1.487000 
H 0.630886 0.000000 0.892210 0.000000 1.487000 
H -0.630888 -0.892209 -0.000002 0.000000 1.487000 
H -0.630888 0.892209 -0.000004 0.000000 1.487000 
5
# dist 2.494 Etot -206.393
C 0.000000 0.000000 0.000000 0.000000 1.908000 
H 1.439837 0.000000 -2.036245 0.000000 1.487000 
H 0.630886 0.000000 0.892210 0.000000 1.487000 
H -0.630888 -0.892209 -0.000002 0.000000 1.487000 
H -0.630888 0.892209 -0.000004 0.000000 1.487000 
5
# dist 2.553 Etot -206.217
C 0.000000 0.000000 0.000000 0.000000 1.908000 
H 1.474007 0.000000 -2.084568 0.000000 1.487000 
H 0.630886 0.000000 0.892210 0.000000 1.487000 
H -0.630888 -0.892209 -0.000002 0.000000 1.487000 
H -0.630888 0.892209 -0.000004 0.000000 1.487000 
5
# dist 2.612 Etot -206.049
C 0.000000 0.000000 0.000000 0.000000 1.908000 
H 1.508176 0.000000 -2.132892 0.000000 1.487000 
H 0.630886 0.000000 0.892210 0.000000 1.487000 
H -0.630888 -0.892209 -0.000002 0.000000 1.487000 
H -0.630888 0.892209 -0.000004 0.000000 1.487000 
5
# dist 2.671 Etot -205.881
C 0.000000 0.000000 0.000000 0.000000 1.908000 
H 1.542346 0.000000 -2.181215 0.000000 1.487000 
H 0.630886 0.000000 0.892210 0.000000 1.487000 
H -0.630888 -0.892209 -0.000002 0.000000 1.487000 
H -0.630888 0.892209 -0.000004 0.000000 1.487000 
5
# dist 2.731 Etot -205.732
C 0.000000 0.000000 0.000000 0.000000 1.908000 
H 1.576516 0.000000 -2.229538 0.000000 1.487000 
H 0.630886 0.000000 0.892210 0.000000 1.487000 
H -0.630888 -0.892209 -0.000002 0.000000 1.487000 
H -0.630888 0.892209 -0.000004 0.000000 1.487000 
5
# dist 2.790 Etot -205.593
C 0.000000 0.000000 0.000000 0.000000 1.908000 
H 1.610685 0.000000 -2.277862 0.000000 1.487000 
H 0.630886 0.000000 0.892210 0.000000 1.487000 
H -0.630888 -0.892209 -0.000002 0.000000 1.487000 
H -0.630888 0.892209 -0.000004 0.000000 1.487000 
5
# dist 2.849 Etot -205.465
C 0.000000 0.000000 0.000000 0.000000 1.908000 
H 1.644855 0.000000 -2.326185 0.000000 1.487000 
H 0.630886 0.000000 0.892210 0.000000 1.487000 
H -0.630888 -0.892209 -0.000002 0.000000 1.487000 
H -0.630888 0.892209 -0.000004 0.000000 1.487000 
5
# dist 2.908 Etot -205.343
C 0.000000 0.000000 0.000000 0.000000 1.908000 
H 1.679025 0.000000 -2.374508 0.000000 1.487000 
H 0.630886 0.000000 0.892210 0.000000 1.487000 
H -0.630888 -0.892209 -0.000002 0.000000 1.487000 
H -0.630888 0.892209 -0.000004 0.000000 1.487000 
5
# dist 2.967 Etot -205.225
C 0.000000 0.000000 0.000000 0.000000 1.908000 
H 1.713194 0.000000 -2.422832 0.000000 1.487000 
H 0.630886 0.000000 0.892210 0.000000 1.487000 
H -0.630888 -0.892209 -0.000002 0.000000 1.487000 
H -0.630888 0.892209 -0.000004 0.000000 1.487000 
5
# dist 3.027 Etot -205.119
C 0.000000 0.000000 0.000000 0.000000 1.908000 
H 1.747364 0.000000 -2.471155 0.000000 1.487000 
H 0.630886 0.000000 0.892210 0.000000 1.487000 
H -0.630888 -0.892209 -0.000002 0.000000 1.487000 
H -0.630888 0.892209 -0.000004 0.000000 1.487000 
5
# dist 3.086 Etot -205.021
C 0.000000 0.000000 0.000000 0.000000 1.908000 
H 1.781533 0.000000 -2.519478 0.000000 1.487000 
H 0.630886 0.000000 0.892210 0.000000 1.487000 
H -0.630888 -0.892209 -0.000002 0.000000 1.487000 
H -0.630888 0.892209 -0.000004 0.000000 1.487000 
5
# dist 3.145 Etot -204.929
C 0.000000 0.000000 0.000000 0.000000 1.908000 
H 1.815703 0.000000 -2.567802 0.000000 1.487000 
H 0.630886 0.000000 0.892210 0.000000 1.487000 
H -0.630888 -0.892209 -0.000002 0.000000 1.487000 
H -0.630888 0.892209 -0.000004 0.000000 1.487000 
5
# dist 3.204 Etot -204.842
C 0.000000 0.000000 0.000000 0.000000 1.908000 
H 1.849873 0.000000 -2.616125 0.000000 1.487000 
H 0.630886 0.000000 0.892210 0.000000 1.487000 
H -0.630888 -0.892209 -0.000002 0.000000 1.487000 
H -0.630888 0.892209 -0.000004 0.000000 1.487000 
5
# dist 3.263 Etot -204.759
C 0.000000 0.000000 0.000000 0.000000 1.908000 
H 1.884042 0.000000 -2.664448 0.000000 1.487000 
H 0.630886 0.000000 0.892210 0.000000 1.487000 
H -0.630888 -0.892209 -0.000002 0.000000 1.487000 
H -0.630888 0.892209 -0.000004 0.000000 1.487000 
5
# dist 3.322 Etot -204.682
C 0.000000 0.000000 0.000000 0.000000 1.908000 
H 1.918212 0.000000 -2.712772 0.000000 1.487000 
H 0.630886 0.000000 0.892210 0.000000 1.487000 
H -0.630888 -0.892209 -0.000002 0.000000 1.487000 
H -0.630888 0.892209 -0.000004 0.000000 1.487000 
5
# dist 3.382 Etot -204.610
C 0.000000 0.000000 0.000000 0.000000 1.908000 
H 1.952381 0.000000 -2.761095 0.000000 1.487000 
H 0.630886 0.000000 0.892210 0.000000 1.487000 
H -0.630888 -0.892209 -0.000002 0.000000 1.487000 
H -0.630888 0.892209 -0.000004 0.000000 1.487000 
5
# dist 3.441 Etot -204.544
C 0.000000 0.000000 0.000000 0.000000 1.908000 
H 1.986551 0.000000 -2.809418 0.000000 1.487000 
H 0.630886 0.000000 0.892210 0.000000 1.487000 
H -0.630888 -0.892209 -0.000002 0.000000 1.487000 
H -0.630888 0.892209 -0.000004 0.000000 1.487000 
5
# dist 3.500 Etot -204.483
C 0.000000 0.000000 0.000000 0.000000 1.908000 
H 2.020721 0.000000 -2.857742 0.000000 1.487000 
H 0.630886 0.000000 0.892210 0.000000 1.487000 
H -0.630888 -0.892209 -0.000002 0.000000 1.487000 
H -0.630888 0.892209 -0.000004 0.000000 1.487000 
