2

H -0.356688 0.000000 0.000000 0.000000 1.487000 
H 0.356688 0.000000 0.000000 0.000000 1.487000 
2
# dist 0.300 Etot -16.795
H -0.356688 0.000000 0.000000 0.000000 1.487000 
H -0.056688 0.000000 0.000000 0.000000 1.487000 
2
# dist 0.365 Etot -22.776
H -0.356688 0.000000 0.000000 0.000000 1.487000 
H 0.008618 0.000000 0.000000 0.000000 1.487000 
2
# dist 0.431 Etot -26.245
H -0.356688 0.000000 0.000000 0.000000 1.487000 
H 0.073924 0.000000 0.000000 0.000000 1.487000 
2
# dist 0.496 Etot -28.262
H -0.356688 0.000000 0.000000 0.000000 1.487000 
H 0.139230 0.000000 0.000000 0.000000 1.487000 
2
# dist 0.561 Etot -29.395
H -0.356688 0.000000 0.000000 0.000000 1.487000 
H 0.204536 0.000000 0.000000 0.000000 1.487000 
2
# dist 0.627 Etot -29.965
H -0.356688 0.000000 0.000000 0.000000 1.487000 
H 0.269843 0.000000 0.000000 0.000000 1.487000 
2
# dist 0.692 Etot -30.173
H -0.356688 0.000000 0.000000 0.000000 1.487000 
H 0.335149 0.000000 0.000000 0.000000 1.487000 
2
# dist 0.757 Etot -30.143
H -0.356688 0.000000 0.000000 0.000000 1.487000 
H 0.400455 0.000000 0.000000 0.000000 1.487000 
2
# dist 0.822 Etot -29.956
H -0.356688 0.000000 0.000000 0.000000 1.487000 
H 0.465761 0.000000 0.000000 0.000000 1.487000 
2
# dist 0.888 Etot -29.669
H -0.356688 0.000000 0.000000 0.000000 1.487000 
H 0.531067 0.000000 0.000000 0.000000 1.487000 
2
# dist 0.953 Etot -29.317
H -0.356688 0.000000 0.000000 0.000000 1.487000 
H 0.596373 0.000000 0.000000 0.000000 1.487000 
2
# dist 1.018 Etot -28.927
H -0.356688 0.000000 0.000000 0.000000 1.487000 
H 0.661679 0.000000 0.000000 0.000000 1.487000 
2
# dist 1.084 Etot -28.515
H -0.356688 0.000000 0.000000 0.000000 1.487000 
H 0.726985 0.000000 0.000000 0.000000 1.487000 
2
# dist 1.149 Etot -28.095
H -0.356688 0.000000 0.000000 0.000000 1.487000 
H 0.792292 0.000000 0.000000 0.000000 1.487000 
2
# dist 1.214 Etot -27.674
H -0.356688 0.000000 0.000000 0.000000 1.487000 
H 0.857598 0.000000 0.000000 0.000000 1.487000 
2
# dist 1.280 Etot -27.259
H -0.356688 0.000000 0.000000 0.000000 1.487000 
H 0.922904 0.000000 0.000000 0.000000 1.487000 
2
# dist 1.345 Etot -26.853
H -0.356688 0.000000 0.000000 0.000000 1.487000 
H 0.988210 0.000000 0.000000 0.000000 1.487000 
2
# dist 1.410 Etot -26.460
H -0.356688 0.000000 0.000000 0.000000 1.487000 
H 1.053516 0.000000 0.000000 0.000000 1.487000 
2
# dist 1.476 Etot -26.080
H -0.356688 0.000000 0.000000 0.000000 1.487000 
H 1.118822 0.000000 0.000000 0.000000 1.487000 
2
# dist 1.541 Etot -25.715
H -0.356688 0.000000 0.000000 0.000000 1.487000 
H 1.184128 0.000000 0.000000 0.000000 1.487000 
2
# dist 1.606 Etot -25.366
H -0.356688 0.000000 0.000000 0.000000 1.487000 
H 1.249434 0.000000 0.000000 0.000000 1.487000 
2
# dist 1.671 Etot -25.033
H -0.356688 0.000000 0.000000 0.000000 1.487000 
H 1.314741 0.000000 0.000000 0.000000 1.487000 
2
# dist 1.737 Etot -24.716
H -0.356688 0.000000 0.000000 0.000000 1.487000 
H 1.380047 0.000000 0.000000 0.000000 1.487000 
2
# dist 1.802 Etot -24.414
H -0.356688 0.000000 0.000000 0.000000 1.487000 
H 1.445353 0.000000 0.000000 0.000000 1.487000 
2
# dist 1.867 Etot -24.128
H -0.356688 0.000000 0.000000 0.000000 1.487000 
H 1.510659 0.000000 0.000000 0.000000 1.487000 
2
# dist 1.933 Etot -23.857
H -0.356688 0.000000 0.000000 0.000000 1.487000 
H 1.575965 0.000000 0.000000 0.000000 1.487000 
2
# dist 1.998 Etot -23.601
H -0.356688 0.000000 0.000000 0.000000 1.487000 
H 1.641271 0.000000 0.000000 0.000000 1.487000 
2
# dist 2.063 Etot -23.359
H -0.356688 0.000000 0.000000 0.000000 1.487000 
H 1.706577 0.000000 0.000000 0.000000 1.487000 
2
# dist 2.129 Etot -23.131
H -0.356688 0.000000 0.000000 0.000000 1.487000 
H 1.771883 0.000000 0.000000 0.000000 1.487000 
2
# dist 2.194 Etot -22.917
H -0.356688 0.000000 0.000000 0.000000 1.487000 
H 1.837190 0.000000 0.000000 0.000000 1.487000 
2
# dist 2.259 Etot -22.716
H -0.356688 0.000000 0.000000 0.000000 1.487000 
H 1.902496 0.000000 0.000000 0.000000 1.487000 
2
# dist 2.324 Etot -22.529
H -0.356688 0.000000 0.000000 0.000000 1.487000 
H 1.967802 0.000000 0.000000 0.000000 1.487000 
2
# dist 2.390 Etot -22.354
H -0.356688 0.000000 0.000000 0.000000 1.487000 
H 2.033108 0.000000 0.000000 0.000000 1.487000 
2
# dist 2.455 Etot -22.192
H -0.356688 0.000000 0.000000 0.000000 1.487000 
H 2.098414 0.000000 0.000000 0.000000 1.487000 
2
# dist 2.520 Etot -22.042
H -0.356688 0.000000 0.000000 0.000000 1.487000 
H 2.163720 0.000000 0.000000 0.000000 1.487000 
2
# dist 2.586 Etot -21.904
H -0.356688 0.000000 0.000000 0.000000 1.487000 
H 2.229026 0.000000 0.000000 0.000000 1.487000 
2
# dist 2.651 Etot -21.778
H -0.356688 0.000000 0.000000 0.000000 1.487000 
H 2.294332 0.000000 0.000000 0.000000 1.487000 
2
# dist 2.716 Etot -21.663
H -0.356688 0.000000 0.000000 0.000000 1.487000 
H 2.359639 0.000000 0.000000 0.000000 1.487000 
2
# dist 2.782 Etot -21.557
H -0.356688 0.000000 0.000000 0.000000 1.487000 
H 2.424945 0.000000 0.000000 0.000000 1.487000 
2
# dist 2.847 Etot -21.459
H -0.356688 0.000000 0.000000 0.000000 1.487000 
H 2.490251 0.000000 0.000000 0.000000 1.487000 
2
# dist 2.912 Etot -21.364
H -0.356688 0.000000 0.000000 0.000000 1.487000 
H 2.555557 0.000000 0.000000 0.000000 1.487000 
2
# dist 2.978 Etot -21.274
H -0.356688 0.000000 0.000000 0.000000 1.487000 
H 2.620863 0.000000 0.000000 0.000000 1.487000 
2
# dist 3.043 Etot -21.191
H -0.356688 0.000000 0.000000 0.000000 1.487000 
H 2.686169 0.000000 0.000000 0.000000 1.487000 
2
# dist 3.108 Etot -21.116
H -0.356688 0.000000 0.000000 0.000000 1.487000 
H 2.751475 0.000000 0.000000 0.000000 1.487000 
2
# dist 3.173 Etot -21.048
H -0.356688 0.000000 0.000000 0.000000 1.487000 
H 2.816781 0.000000 0.000000 0.000000 1.487000 
2
# dist 3.239 Etot -20.988
H -0.356688 0.000000 0.000000 0.000000 1.487000 
H 2.882088 0.000000 0.000000 0.000000 1.487000 
2
# dist 3.304 Etot -20.935
H -0.356688 0.000000 0.000000 0.000000 1.487000 
H 2.947394 0.000000 0.000000 0.000000 1.487000 
2
# dist 3.369 Etot -20.888
H -0.356688 0.000000 0.000000 0.000000 1.487000 
H 3.012700 0.000000 0.000000 0.000000 1.487000 
2
# dist 3.435 Etot -20.846
H -0.356688 0.000000 0.000000 0.000000 1.487000 
H 3.078006 0.000000 0.000000 0.000000 1.487000 
2
# dist 3.500 Etot -20.808
H -0.356688 0.000000 0.000000 0.000000 1.487000 
H 3.143312 0.000000 0.000000 0.000000 1.487000 
