          36
#DEBUG libFireCore::firecore_init() 
H      -7.10560000     -1.00000000      0.00000000
H      -7.10560000      1.00000000      0.00000000
C      -6.00560000     -0.80000000      0.00000000
C      -6.00560000      0.80000000      0.00000000
C      -4.80560000     -1.30000000      0.00000000
C      -4.80560000      1.30000000      0.00000000
C      -3.60560000     -0.80000000      0.00000000
C      -3.60560000      0.80000000      0.00000000
H      -4.80560000     -2.50000000      0.00000000
H      -4.80560000      2.50000000      0.00000000
C      -2.40560000     -1.30000000      0.00000000
C      -2.40560000      1.30000000      0.00000000
C      -1.20560000     -0.80000000      0.00000000
C      -1.20560000      0.80000000      0.00000000
H      -2.40560000     -2.50000000      0.00000000
H      -2.40560000      2.50000000      0.00000000
C      -0.00560000     -1.30000000      0.00000000
C      -0.00560000      1.30000000      0.00000000
C       1.19440000     -0.80000000      0.00000000
C       1.19440000      0.80000000      0.00000000
H      -0.00560000     -2.50000000      0.00000000
H      -0.00560000      2.50000000      0.00000000
C       2.39440000     -1.30000000      0.00000000
C       2.39440000      1.30000000      0.00000000
C       3.59440000     -0.80000000      0.00000000
C       3.59440000      0.80000000      0.00000000
H       2.39440000     -2.50000000      0.00000000
H       2.39440000      2.50000000      0.00000000
C       4.79440000     -1.30000000      0.00000000
C       4.79440000      1.30000000      0.00000000
C       5.99440000     -0.80000000      0.00000000
C       5.99440000      0.80000000      0.00000000
H       4.79440000     -2.50000000      0.00000000
H       4.79440000      2.50000000      0.00000000
H       7.19440000     -1.00000000      0.00000000
H       7.19440000      1.00000000      0.00000000
