           5
#DEBUG libFireCore::firecore_init() 
C       0.01000000      0.00000000      0.00000000
H      -1.00000000      1.00000000     -1.00000000
H       1.00000000     -1.00000000     -1.00000000
H      -1.00000000     -1.00000000      1.00000000
H       1.00000000      1.00000000      1.00000000
