149
lvs 20.000  0.000  0.000    0.000 20.000  0.000    0.000  0.000 20.000
Na      0.00000      0.00000     -3.25000 +0.7
Na      4.00000      0.00000     -3.25000 +0.7
Na      8.00000      0.00000     -3.25000 +0.7
Na     12.00000      0.00000     -3.25000 +0.7
Na     16.00000      0.00000     -3.25000 +0.7
Cl      2.00000      2.00000     -3.25000 -0.7
Cl      6.00000      2.00000     -3.25000 -0.7
Cl     10.00000      2.00000     -3.25000 -0.7
Cl     14.00000      2.00000     -3.25000 -0.7
Cl     18.00000      2.00000     -3.25000 -0.7
Na      0.00000      4.00000     -3.25000 +0.7
Na      4.00000      4.00000     -3.25000 +0.7
Na      8.00000      4.00000     -3.25000 +0.7
Na     12.00000      4.00000     -3.25000 +0.7
Na     16.00000      4.00000     -3.25000 +0.7
Cl      2.00000      6.00000     -3.25000 -0.7
Cl      6.00000      6.00000     -3.25000 -0.7
Cl     10.00000      6.00000     -3.25000 -0.7
Cl     14.00000      6.00000     -3.25000 -0.7
Cl     18.00000      6.00000     -3.25000 -0.7
Na      0.00000      8.00000     -3.25000 +0.7
Na      4.00000      8.00000     -3.25000 +0.7
Na      8.00000      8.00000     -3.25000 +0.7
Na     12.00000      8.00000     -3.25000 +0.7
Na     16.00000      8.00000     -3.25000 +0.7
Cl      2.00000     10.00000     -3.25000 -0.7
Cl      6.00000     10.00000     -3.25000 -0.7
Cl     14.00000     10.00000     -3.25000 -0.7
Cl     18.00000     10.00000     -3.25000 -0.7
Na      0.00000     12.00000     -3.25000 +0.7
Na      4.00000     12.00000     -3.25000 +0.7
Na      8.00000     12.00000     -3.25000 +0.7
Na     12.00000     12.00000     -3.25000 +0.7
Na     16.00000     12.00000     -3.25000 +0.7
Cl      2.00000     14.00000     -3.25000 -0.7
Cl      6.00000     14.00000     -3.25000 -0.7
Cl     10.00000     14.00000     -3.25000 -0.7
Cl     14.00000     14.00000     -3.25000 -0.7
Cl     18.00000     14.00000     -3.25000 -0.7
Na      0.00000     16.00000     -3.25000 +0.7
Na      4.00000     16.00000     -3.25000 +0.7
Na      8.00000     16.00000     -3.25000 +0.7
Na     12.00000     16.00000     -3.25000 +0.7
Na     16.00000     16.00000     -3.25000 +0.7
Cl      2.00000     18.00000     -3.25000 -0.7
Cl      6.00000     18.00000     -3.25000 -0.7
Cl     10.00000     18.00000     -3.25000 -0.7
Cl     14.00000     18.00000     -3.25000 -0.7
Cl     18.00000     18.00000     -3.25000 -0.7
Cl      0.00000      0.00000     -6.07843 -0.7
Cl      4.00000      0.00000     -6.07843 -0.7
Cl      8.00000      0.00000     -6.07843 -0.7
Cl     12.00000      0.00000     -6.07843 -0.7
Cl     16.00000      0.00000     -6.07843 -0.7
Na      2.00000      2.00000     -6.07843 +0.7
Na      6.00000      2.00000     -6.07843 +0.7
Na     10.00000      2.00000     -6.07843 +0.7
Na     14.00000      2.00000     -6.07843 +0.7
Na     18.00000      2.00000     -6.07843 +0.7
Cl      0.00000      4.00000     -6.07843 -0.7
Cl      4.00000      4.00000     -6.07843 -0.7
Cl      8.00000      4.00000     -6.07843 -0.7
Cl     12.00000      4.00000     -6.07843 -0.7
Cl     16.00000      4.00000     -6.07843 -0.7
Na      2.00000      6.00000     -6.07843 +0.7
Na      6.00000      6.00000     -6.07843 +0.7
Na     10.00000      6.00000     -6.07843 +0.7
Na     14.00000      6.00000     -6.07843 +0.7
Na     18.00000      6.00000     -6.07843 +0.7
Cl      0.00000      8.00000     -6.07843 -0.7
Cl      4.00000      8.00000     -6.07843 -0.7
Cl      8.00000      8.00000     -6.07843 -0.7
Cl     12.00000      8.00000     -6.07843 -0.7
Cl     16.00000      8.00000     -6.07843 -0.7
Na      2.00000     10.00000     -6.07843 +0.7
Na      6.00000     10.00000     -6.07843 +0.7
Na     10.00000     10.00000     -6.07843 +0.7
Na     14.00000     10.00000     -6.07843 +0.7
Na     18.00000     10.00000     -6.07843 +0.7
Cl      0.00000     12.00000     -6.07843 -0.7
Cl      4.00000     12.00000     -6.07843 -0.7
Cl      8.00000     12.00000     -6.07843 -0.7
Cl     12.00000     12.00000     -6.07843 -0.7
Cl     16.00000     12.00000     -6.07843 -0.7
Na      2.00000     14.00000     -6.07843 +0.7
Na      6.00000     14.00000     -6.07843 +0.7
Na     10.00000     14.00000     -6.07843 +0.7
Na     14.00000     14.00000     -6.07843 +0.7
Na     18.00000     14.00000     -6.07843 +0.7
Cl      0.00000     16.00000     -6.07843 -0.7
Cl      4.00000     16.00000     -6.07843 -0.7
Cl      8.00000     16.00000     -6.07843 -0.7
Cl     12.00000     16.00000     -6.07843 -0.7
Cl     16.00000     16.00000     -6.07843 -0.7
Na      2.00000     18.00000     -6.07843 +0.7
Na      6.00000     18.00000     -6.07843 +0.7
Na     10.00000     18.00000     -6.07843 +0.7
Na     14.00000     18.00000     -6.07843 +0.7
Na     18.00000     18.00000     -6.07843 +0.7
Na      0.00000      0.00000     -8.90685 +0.7
Na      4.00000      0.00000     -8.90685 +0.7
Na      8.00000      0.00000     -8.90685 +0.7
Na     12.00000      0.00000     -8.90685 +0.7
Na     16.00000      0.00000     -8.90685 +0.7
Cl      2.00000      2.00000     -8.90685 -0.7
Cl      6.00000      2.00000     -8.90685 -0.7
Cl     10.00000      2.00000     -8.90685 -0.7
Cl     14.00000      2.00000     -8.90685 -0.7
Cl     18.00000      2.00000     -8.90685 -0.7
Na      0.00000      4.00000     -8.90685 +0.7
Na      4.00000      4.00000     -8.90685 +0.7
Na      8.00000      4.00000     -8.90685 +0.7
Na     12.00000      4.00000     -8.90685 +0.7
Na     16.00000      4.00000     -8.90685 +0.7
Cl      2.00000      6.00000     -8.90685 -0.7
Cl      6.00000      6.00000     -8.90685 -0.7
Cl     10.00000      6.00000     -8.90685 -0.7
Cl     14.00000      6.00000     -8.90685 -0.7
Cl     18.00000      6.00000     -8.90685 -0.7
Na      0.00000      8.00000     -8.90685 +0.7
Na      4.00000      8.00000     -8.90685 +0.7
Na      8.00000      8.00000     -8.90685 +0.7
Na     12.00000      8.00000     -8.90685 +0.7
Na     16.00000      8.00000     -8.90685 +0.7
Cl      2.00000     10.00000     -8.90685 -0.7
Cl      6.00000     10.00000     -8.90685 -0.7
Cl     10.00000     10.00000     -8.90685 -0.7
Cl     14.00000     10.00000     -8.90685 -0.7
Cl     18.00000     10.00000     -8.90685 -0.7
Na      0.00000     12.00000     -8.90685 +0.7
Na      4.00000     12.00000     -8.90685 +0.7
Na      8.00000     12.00000     -8.90685 +0.7
Na     12.00000     12.00000     -8.90685 +0.7
Na     16.00000     12.00000     -8.90685 +0.7
Cl      2.00000     14.00000     -8.90685 -0.7
Cl      6.00000     14.00000     -8.90685 -0.7
Cl     10.00000     14.00000     -8.90685 -0.7
Cl     14.00000     14.00000     -8.90685 -0.7
Cl     18.00000     14.00000     -8.90685 -0.7
Na      0.00000     16.00000     -8.90685 +0.7
Na      4.00000     16.00000     -8.90685 +0.7
Na      8.00000     16.00000     -8.90685 +0.7
Na     12.00000     16.00000     -8.90685 +0.7
Na     16.00000     16.00000     -8.90685 +0.7
Cl      2.00000     18.00000     -8.90685 -0.7
Cl      6.00000     18.00000     -8.90685 -0.7
Cl     10.00000     18.00000     -8.90685 -0.7
Cl     14.00000     18.00000     -8.90685 -0.7
Cl     18.00000     18.00000     -8.90685 -0.7
