13
#comment 
 C   -0.629662842271    0.646963944437   -0.062919663919    0.51934 
 C   -1.030262842271   -0.690336055563   -0.105019663919   -0.26293 
 C    1.277237157729   -1.310836055563    0.139980336081   -0.20726 
 C   -0.057462842271   -1.681636055563   -0.001419663919   -0.07238 
 C    1.595237157729    0.047063944437    0.173480336081    0.17020 
 H   -2.078762842271   -0.957236055563   -0.215219663919    0.11533 
 H   -0.401962842271   -2.981336055563   -0.037619663919    0.09498 
 N   -1.544762842271    1.653163944437   -0.161019663919   -0.70154 
 N    0.662337157729    1.022463944437    0.074180336081   -0.48178 
 H   -2.485762842271    1.431763944437   -0.466019663919    0.33060 
 H   -1.207262842271    2.599863944437   -0.295719663919    0.32481 
 H    2.056437157729   -2.064336055563    0.222780336081    0.10319 
 H    2.624637157729    0.382063944437    0.282580336081    0.06744 
