13
#comment 
 C   -1.525601027650    0.577701948772   -0.145596591915    0.79677 
 C   -1.377441027650   -0.858588051228   -0.250156591915   -0.36366 
 C   -0.068151027650   -1.180608051228   -0.106566591915   -0.11029 
 H   -2.219921027650   -1.521078051228   -0.417106591915    0.16025 
 C    0.616928972350    0.065581948772    0.090263408085    0.50337 
 N   -0.273291027650    1.137001948772    0.066343408085   -0.67073 
 O    1.983368972350    0.121071948772    0.276453408085   -0.23273 
 O   -2.562281027650    1.204131948772   -0.226596591915   -0.41776 
 H    0.386758972350   -2.164548051228   -0.131426591915    0.10887 
 C    2.830778972350   -1.050468051228    0.251963408085   -0.02771 
 H    3.865478972350   -0.737458051228    0.415293408085    0.11125 
 H    2.529558972350   -1.736728051228    1.048093408085    0.07126 
 H    2.749298972350   -1.541408051228   -0.721716591915    0.07111 
