          10

 C   0.33312173995836419        1.1264897325978671       -9.0398279820047556E-007
 C  -0.98636640117563801       0.71373275736479291        5.5511151231257827E-017
 N    1.1222757361724698       -2.4399547744524686E-005  -5.8037761295481882E-007
 H   -1.8558981613972230        1.3667064619600657        3.1856833947185859E-006
 C  -0.98636640117563745      -0.71369843501087460        0.0000000000000000     
 C   0.33307069830102853       -1.1264947102083285       -9.2287288921966137E-016
 H   0.77144301798095061       -2.1207514491149420        6.4344682475792059E-006
 H   -1.8559532417511106       -1.3666489405514146        4.6921555874046561E-007
 H    2.1323541549993701       -3.7122274816336898E-005  -1.3756473531273405E-005
 H   0.77151433811255477        2.1207206630096298        1.9676606452731504E-006
