          12

 C  -0.97757873982604915       -1.5771419877310837        0.0000000000000000     
 H   -1.5292560690988330       -2.5158491992549195       -1.9525873421938345E-005
 C   0.38900723486281458       -1.5771419877310837        1.9428902930940239E-016
 C  -0.94886081174760251       0.86269221214180059       -7.4940054162198066E-016
 C   -1.6470932326095125      -0.31384802926709132        4.8070215707990416E-005
 O    1.2277852228497994        1.8817205790410982       -2.9852424025939017E-004
 H    2.0976935772646748      -0.40460813546266050       -1.9923606097430047E-004
 C   0.50679317158435078       0.89107327769309730        4.1030306521902538E-005
 H   -1.4448124326950997        1.8337886781220007        4.2070254427178932E-005
 H   -2.7402366983145843      -0.29218307055849690       -2.1368263772664209E-005
 H   0.98693656180951217       -2.4901314296217110       -5.0972335156912463E-005
 N    1.0815283180349815      -0.40179061714990094       -5.0656002030469161E-005
