12
XYZ file generated by Avogadro.
C      0.00537    0.01792    0.07540
H      4.94208   -1.08314   -0.18417
C      1.42795   -0.11873    0.18933
C     -0.59445    1.21534    0.02093
C      2.80131   -0.25769   -0.15693
C      4.25038   -0.17685   -0.25550
C      4.75940    1.13184   -0.43371
H     -1.67500    1.29782   -0.06492
H     -0.02465    2.14118    0.06069
H     -0.57118   -0.90534    0.03508
H      5.84118    1.32461   -0.51043
H      4.05428    2.00163   -0.50246
