          38
 lvs    32.000000000000000        0.0000000000000000        0.0000000000000000        0.0000000000000000        32.000000000000000        0.0000000000000000        0.0000000000000000        0.0000000000000000        60.000000000000000     
 C     12.970180476559033        15.588480476559035        30.072780476559032       -5.6899999999999997E-003
 C     18.749713965822949        15.448313965822948        29.932713965822948       -5.6899999999999997E-003
 C     17.394504363983923        15.583304363983924        30.067704363983925        1.2380000000000000E-002
 C     14.434638681198068        15.562638681198068        30.046938681198068        1.2380000000000000E-002
 C     16.574355121724128        14.200055121724128        29.977055121724128        1.6310000000000002E-002
 C     15.149331232649452        14.255231232649452        30.032131232649451        1.6310000000000002E-002
 C     15.063999254023527        16.754999254023527        29.946799254023528        1.6310000000000002E-002
 C     16.612865004535966        16.823765004535964        30.015565004535965        1.6310000000000002E-002
 C     14.394802315963220        13.078902315963219        30.083102315963220       -3.8425000000000001E-002
 C     17.455982927499726        13.049082927499725        30.053282927499726       -3.8425000000000001E-002
 C     14.388291922306149        18.111991922306149        30.076491922306150       -3.8425000000000001E-002
 C     17.456631345591617        18.089231345591617        30.053831345591618       -3.8425000000000001E-002
 C     12.911395393044831        13.031595393044830        30.022995393044830       -3.2570000000000002E-002
 C     12.970048266224719        18.104248266224719        30.081548266224718       -3.2570000000000002E-002
 C     18.916142951595052        13.098742951595053        30.090242951595052       -3.2570000000000002E-002
 C     18.900372558693725        18.096972558693725        30.074372558693724       -3.2570000000000002E-002
 C     12.141420648576046        16.772820648576047        29.986420648576047        1.9990000000000001E-002
 C     12.221350175603016        14.311350175603016        30.066350175603016        1.9990000000000001E-002
 C     19.502374375388104        14.187674375388106        29.942874375388104        1.9990000000000001E-002
 C     19.643863928841185        16.870663928841186        30.084363928841185        1.9990000000000001E-002
 C     20.965451628766992        14.264551628766993        29.948651628766992       0.22694000000000000     
 C     20.930243282369911        16.628643282369911        29.913443282369911       0.22694000000000000     
 C     10.786556846315600        14.405056846315601        30.088956846315600       0.22694000000000000     
 C     10.631851106544191        16.649551106544191        29.934151106544192       0.22694000000000000     
 O     21.714634472723827        15.592234472723828        30.076734472723828      -0.12278000000000000     
 O     10.077888271731885        15.516988271731886        30.001288271731887      -0.12278000000000000     
 O     21.646292922893533        17.652092922893534        29.931792922893532      -0.27689000000000002     
 O     21.684991824036992        13.281391824036993        29.970591824036990      -0.27689000000000002     
 O     10.030580585494155        17.750980585494158        30.030480585494157      -0.27689000000000002     
 O     9.9211775665190967        13.232177566519097        29.921177566519095      -0.27689000000000002     
 H     12.297050672536042        11.977350672536042        29.929350672536042        8.6370000000000002E-002
 H     12.387582456300439        19.003082456300440        30.019682456300441        8.6370000000000002E-002
 H     19.269853092091118        11.971153092091120        29.923253092091119        8.6370000000000002E-002
 H     19.295048482525150        18.931648482525151        29.948348482525152        8.6370000000000002E-002
 H     14.803976667790590        12.072076667790590        30.072076667790590        5.6320000000000002E-002
 H     14.681476387514126        18.980776387514126        29.949476387514125        5.6320000000000002E-002
 H     17.058746684728522        12.076246684728520        30.076246684728520        5.6320000000000002E-002
 H     17.028506569485664        19.077106569485661        30.045906569485663        5.6320000000000002E-002
