          38
 lvs    32.000000000000000        0.0000000000000000        0.0000000000000000        0.0000000000000000        32.000000000000000        0.0000000000000000        0.0000000000000000        0.0000000000000000        60.000000000000000     
 C     12.986850791286118        15.605150791286119        30.089450791286119       -5.6899999999999997E-003
 C     18.829669028487626        15.528269028487626        30.012669028487625       -5.6899999999999997E-003
 C     17.376243645949380        15.565043645949380        30.049443645949381        1.2380000000000000E-002
 C     14.483672207182835        15.611672207182835        30.095972207182832        1.2380000000000000E-002
 C     16.642825544048325        14.268525544048325        30.045525544048324        1.6310000000000002E-002
 C     15.126006323616837        14.231906323616837        30.008806323616838        1.6310000000000002E-002
 C     15.051353990370055        16.742353990370056        29.934153990370056        1.6310000000000002E-002
 C     16.605976267347387        16.816876267347386        30.008676267347386        1.6310000000000002E-002
 C     14.282056399895980        12.966156399895979        29.970356399895980       -3.8425000000000001E-002
 C     17.377476513997571        12.970576513997571        29.974776513997572       -3.8425000000000001E-002
 C     14.340049744478344        18.063749744478343        30.028249744478344       -3.8425000000000001E-002
 C     17.416967023107862        18.049567023107862        30.014167023107863       -3.8425000000000001E-002
 C     12.801046586657284        12.921246586657283        29.912646586657281       -3.2570000000000002E-002
 C     12.876604175805678        18.010804175805678        29.988104175805677       -3.2570000000000002E-002
 C     18.791180466832536        12.973780466832535        29.965280466832535       -3.2570000000000002E-002
 C     18.863207425177620        18.059807425177620        30.037207425177620       -3.2570000000000002E-002
 C     12.240090234045626        16.871490234045627        30.085090234045627        1.9990000000000001E-002
 C     12.082485909790984        14.172485909790984        29.927485909790985        1.9990000000000001E-002
 C     19.601379993856849        14.286679993856849        30.041879993856849        1.9990000000000001E-002
 C     19.531857908141664        16.758657908141664        29.972357908141664        1.9990000000000001E-002
 C     20.938729199606406        14.237829199606406        29.921929199606407       0.22694000000000000     
 C     20.929337970822946        16.627737970822945        29.912537970822946       0.22694000000000000     
 C     10.794966143301831        14.413466143301832        30.097366143301834       0.22694000000000000     
 C     10.733153827610835        16.750853827610836        30.035453827610837       0.22694000000000000     
 O     21.715582725048325        15.593182725048326        30.077682725048327      -0.12278000000000000     
 O     10.123292322098429        15.562392322098431        30.046692322098430      -0.12278000000000000     
 O     21.758174463697205        17.763974463697206        30.043674463697204      -0.27689000000000002     
 O     21.812022263529069        13.408422263529069        30.097622263529068      -0.27689000000000002     
 O     10.082204417120606        17.802604417120609        30.082104417120608      -0.27689000000000002     
 O     9.9901592205660101        13.301159220566010        29.990159220566010      -0.27689000000000002     
 H     12.354305572675544        12.034605572675545        29.986605572675543        8.6370000000000002E-002
 H     12.330224876616334        18.945724876616332        29.962324876616332        8.6370000000000002E-002
 H     19.429666395357827        12.130966395357829        30.083066395357829        8.6370000000000002E-002
 H     19.434631121948225        19.071231121948227        30.087931121948227        8.6370000000000002E-002
 H     14.677354578134048        11.945454578134049        29.945454578134047        5.6320000000000002E-002
 H     14.691202025626012        18.990502025626014        29.959202025626013        5.6320000000000002E-002
 H     17.012096899830571        12.029596899830571        30.029596899830569        5.6320000000000002E-002
 H     17.072534027797492        19.121134027797488        30.089934027797490        5.6320000000000002E-002
