          38
 lvs    32.000000000000000        0.0000000000000000        0.0000000000000000        0.0000000000000000        32.000000000000000        0.0000000000000000        0.0000000000000000        0.0000000000000000        60.000000000000000     
 C     12.906259371579941        15.524559371579942        30.008859371579941       -5.6899999999999997E-003
 C     18.873615504697415        15.572215504697414        30.056615504697415       -5.6899999999999997E-003
 C     17.306090612765136        15.494890612765138        29.979290612765137        1.2380000000000000E-002
 C     14.435521330958622        15.563521330958622        30.047821330958623        1.2380000000000000E-002
 C     16.584982950117027        14.210682950117025        29.987682950117026        1.6310000000000002E-002
 C     15.208213230369305        14.314113230369305        30.091013230369303        1.6310000000000002E-002
 C     15.170095363720250        16.861095363720249        30.052895363720250        1.6310000000000002E-002
 C     16.661603420590410        16.872503420590409        30.064303420590409        1.6310000000000002E-002
 C     14.385717328544747        13.069817328544746        30.074017328544745       -3.8425000000000001E-002
 C     17.486160133163153        13.079260133163153        30.083460133163154       -3.8425000000000001E-002
 C     14.392398124381321        18.116098124381320        30.080598124381321       -3.8425000000000001E-002
 C     17.467726593064974        18.100326593064974        30.064926593064975       -3.8425000000000001E-002
 C     12.973597704323442        13.093797704323441        30.085197704323441       -3.2570000000000002E-002
 C     12.957871393601533        18.092071393601532        30.069371393601532       -3.2570000000000002E-002
 C     18.783613342951259        12.966213342951256        29.957713342951259       -3.2570000000000002E-002
 C     18.855985169676742        18.052585169676743        30.029985169676742       -3.2570000000000002E-002
 C     12.145849654443975        16.777249654443978        29.990849654443977        1.9990000000000001E-002
 C     12.157334242883145        14.247334242883145        30.002334242883144        1.9990000000000001E-002
 C     19.613768807082085        14.299068807082087        30.054268807082085        1.9990000000000001E-002
 C     19.480940978554205        16.707740978554206        29.921440978554205        1.9990000000000001E-002
 C     21.074113480987993        14.373213480987992        30.057313480987993       0.22694000000000000     
 C     21.071077376885611        16.769477376885611        30.054277376885612       0.22694000000000000     
 C     10.724595411870556        14.343095411870557        30.026995411870558       0.22694000000000000     
 C     10.773178222135160        16.790878222135159        30.075478222135160       0.22694000000000000     
 O     21.734950122886200        15.612550122886203        30.097050122886202      -0.12278000000000000     
 O     10.175152830617312        15.614252830617314        30.098552830617312      -0.12278000000000000     
 O     21.696980889812664        17.702780889812665        29.982480889812663      -0.27689000000000002     
 O     21.685925622052860        13.282325622052859        29.971525622052859      -0.27689000000000002     
 O     9.9563325531326434        17.676732553132645        29.956232553132644      -0.27689000000000002     
 O     9.9827401275078742        13.293740127507874        29.982740127507874      -0.27689000000000002     
 H     12.305408045859236        11.985708045859237        29.937708045859235        8.6370000000000002E-002
 H     12.359432561777419        18.974932561777418        29.991532561777419        8.6370000000000002E-002
 H     19.283729956621102        11.985029956621103        29.937129956621103        8.6370000000000002E-002
 H     19.350342030467239        18.986942030467240        30.003642030467240        8.6370000000000002E-002
 H     14.812285728930281        12.080385728930281        30.080385728930281        5.6320000000000002E-002
 H     14.688287651718595        18.987587651718595        29.956287651718593        5.6320000000000002E-002
 H     16.958142861252732        11.975642861252728        29.975642861252730        5.6320000000000002E-002
 H     16.887792834522759        18.936392834522756        29.905192834522758        5.6320000000000002E-002
