          38
 lvs    32.000000000000000        0.0000000000000000        0.0000000000000000        0.0000000000000000        32.000000000000000        0.0000000000000000        0.0000000000000000        0.0000000000000000        60.000000000000000     
 C     12.840110270775709        15.458410270775710        29.942710270775709       -5.6899999999999997E-003
 C     18.736102187923496        15.434702187923495        29.919102187923496       -5.6899999999999997E-003
 C     17.322031238471912        15.510831238471914        29.995231238471913        1.2380000000000000E-002
 C     14.370445904637906        15.498445904637906        29.982745904637905        1.2380000000000000E-002
 C     16.596281914946687        14.221981914946689        29.998981914946686        1.6310000000000002E-002
 C     15.178403526050264        14.284303526050264        30.061203526050264        1.6310000000000002E-002
 C     15.109659143650664        16.800659143650662        29.992459143650663        1.6310000000000002E-002
 C     16.513094220530352        16.723994220530351        29.915794220530351        1.6310000000000002E-002
 C     14.234761239055921        12.918861239055920        29.923061239055922       -3.8425000000000001E-002
 C     17.432534269201657        13.025634269201655        30.029834269201658       -3.8425000000000001E-002
 C     14.275780028807564        17.999480028807564        29.963980028807566       -3.8425000000000001E-002
 C     17.464931187774937        18.097531187774937        30.062131187774938       -3.8425000000000001E-002
 C     12.937817835813092        13.058017835813091        30.049417835813092       -3.2570000000000002E-002
 C     12.849254852802710        17.983454852802712        29.960754852802712       -3.2570000000000002E-002
 C     18.867910784923193        13.050510784923192        30.042010784923193       -3.2570000000000002E-002
 C     18.790148292462497        17.986748292462497        29.964148292462497       -3.2570000000000002E-002
 C     12.120404243737905        16.751804243737904        29.965404243737904        1.9990000000000001E-002
 C     12.213849584576735        14.303849584576735        30.058849584576734        1.9990000000000001E-002
 C     19.581765863281788        14.267065863281788        30.022265863281788        1.9990000000000001E-002
 C     19.630433972758023        16.857233972758024        30.070933972758024        1.9990000000000001E-002
 C     21.017323904696326        14.316423904696325        30.000523904696326       0.22694000000000000     
 C     21.058657361669756        16.757057361669755        30.041857361669756       0.22694000000000000     
 C     10.749636191137675        14.368136191137676        30.052036191137674       0.22694000000000000     
 C     10.689759623207701        16.707459623207701        29.992059623207702       0.22694000000000000     
 O     21.602355572964633        15.479955572964636        29.964455572964635      -0.12278000000000000     
 O     10.031098244824859        15.470198244824861        29.954498244824858      -0.12278000000000000     
 O     21.775102151327481        17.780902151327481        30.060602151327480      -0.27689000000000002     
 O     21.749864226080344        13.346264226080343        30.035464226080343      -0.27689000000000002     
 O     10.036110024582674        17.756510024582674        30.036010024582673      -0.27689000000000002     
 O     9.9373760859072373        13.248376085907237        29.937376085907239      -0.27689000000000002     
 H     12.389010141768750        12.069310141768751        30.021310141768751        8.6370000000000002E-002
 H     12.396172151199671        19.011672151199669        30.028272151199669        8.6370000000000002E-002
 H     19.422983608491784        12.124283608491787        30.076383608491785        8.6370000000000002E-002
 H     19.423192032875615        19.059792032875617        30.076492032875617        8.6370000000000002E-002
 H     14.732236151292014        12.000336151292014        30.000336151292014        5.6320000000000002E-002
 H     14.668654957856434        18.967954957856435        29.936654957856433        5.6320000000000002E-002
 H     16.953155740007720        11.970655740007718        29.970655740007718        5.6320000000000002E-002
 H     16.884505803608842        18.933105803608839        29.901905803608841        5.6320000000000002E-002
