          38
 lvs    32.000000000000000        0.0000000000000000        0.0000000000000000        0.0000000000000000        32.000000000000000        0.0000000000000000        0.0000000000000000        0.0000000000000000        60.000000000000000     
 C     12.950515562099103        15.568815562099104        30.053115562099105       -5.6899999999999997E-003
 C     18.901628229353705        15.600228229353704        30.084628229353704       -5.6899999999999997E-003
 C     17.353913256163555        15.542713256163555        30.027113256163556        1.2380000000000000E-002
 C     14.314735622047381        15.442735622047381        29.927035622047381        1.2380000000000000E-002
 C     16.635647620318831        14.261347620318830        30.038347620318831        1.6310000000000002E-002
 C     15.038775284215827        14.144675284215827        29.921575284215827        1.6310000000000002E-002
 C     15.102945392371639        16.793945392371640        29.985745392371641        1.6310000000000002E-002
 C     16.661454791533938        16.872354791533937        30.064154791533937        1.6310000000000002E-002
 C     14.366335909800064        13.050435909800063        30.054635909800062       -3.8425000000000001E-002
 C     17.394011648322319        12.987111648322321        29.991311648322320       -3.8425000000000001E-002
 C     14.320532845080912        18.044232845080909        30.008732845080910       -3.8425000000000001E-002
 C     17.385239791953154        18.017839791953154        29.982439791953155       -3.8425000000000001E-002
 C     12.876880524256251        12.997080524256249        29.988480524256250       -3.2570000000000002E-002
 C     12.975662854364622        18.109862854364621        30.087162854364621       -3.2570000000000002E-002
 C     18.908123714203231        13.090723714203230        30.082223714203231       -3.2570000000000002E-002
 C     18.859305658153133        18.055905658153133        30.033305658153132       -3.2570000000000002E-002
 C     12.059608971308448        16.691008971308449        29.904608971308448        1.9990000000000001E-002
 C     12.196903245655189        14.286903245655189        30.041903245655188        1.9990000000000001E-002
 C     19.626842029125690        14.312142029125690        30.067342029125690        1.9990000000000001E-002
 C     19.626981004152764        16.853781004152765        30.067481004152764        1.9990000000000001E-002
 C     21.032548837848921        14.331648837848919        30.015748837848921       0.22694000000000000     
 C     21.044305884248200        16.742705884248199        30.027505884248200       0.22694000000000000     
 C     10.623524738221226        14.242024738221227        29.925924738221227       0.22694000000000000     
 C     10.673729206164621        16.691429206164621        29.976029206164622       0.22694000000000000     
 O     21.717860787439903        15.595460787439903        30.079960787439905      -0.12278000000000000     
 O     9.9909509901687787        15.430050990168780        29.914350990168778      -0.12278000000000000     
 O     21.750538681554577        17.756338681554578        30.036038681554576      -0.27689000000000002     
 O     21.668731416071530        13.265131416071529        29.954331416071529      -0.27689000000000002     
 O     10.079867006117023        17.800267006117025        30.079767006117024      -0.27689000000000002     
 O     10.015652592613650        13.326652592613650        30.015652592613652      -0.27689000000000002     
 H     12.300145592085055        11.980445592085056        29.932445592085056        8.6370000000000002E-002
 H     12.324566227607932        18.940066227607929        29.956666227607929        8.6370000000000002E-002
 H     19.355940190943123        12.057240190943125        30.009340190943124        8.6370000000000002E-002
 H     19.277850794525722        18.914450794525724        29.931150794525724        8.6370000000000002E-002
 H     14.762504619697568        12.030604619697568        30.030604619697570        5.6320000000000002E-002
 H     14.672580722798044        18.971880722798048        29.940580722798046        5.6320000000000002E-002
 H     16.939785545965922        11.957285545965920        29.957285545965920        5.6320000000000002E-002
 H     16.940727396283435        18.989327396283432        29.958127396283434        5.6320000000000002E-002
