          38
 lvs    32.000000000000000        0.0000000000000000        0.0000000000000000        0.0000000000000000        32.000000000000000        0.0000000000000000        0.0000000000000000        0.0000000000000000        60.000000000000000     
 C     12.808578920695906        15.426878920695907        29.911178920695907       -5.6899999999999997E-003
 C     18.823385179471703        15.521985179471704        30.006385179471703       -5.6899999999999997E-003
 C     17.383635369946255        15.572435369946257        30.056835369946256        1.2380000000000000E-002
 C     14.413576722507866        15.541576722507866        30.025876722507864        1.2380000000000000E-002
 C     16.592993732697892        14.218693732697892        29.995693732697891        1.6310000000000002E-002
 C     15.067788653726536        14.173688653726536        29.950588653726538        1.6310000000000002E-002
 C     15.050636253002651        16.741636253002650        29.933436253002650        1.6310000000000002E-002
 C     16.686919449128609        16.897819449128608        30.089619449128609        1.6310000000000002E-002
 C     14.322007024870022        13.006107024870021        30.010307024870023       -3.8425000000000001E-002
 C     17.476061026422727        13.069161026422726        30.073361026422727       -3.8425000000000001E-002
 C     14.342804079529859        18.066504079529860        30.031004079529861       -3.8425000000000001E-002
 C     17.435010159700528        18.067610159700529        30.032210159700529       -3.8425000000000001E-002
 C     12.872201462408254        12.992401462408253        29.983801462408255       -3.2570000000000002E-002
 C     12.828657307370579        17.962857307370577        29.940157307370576       -3.2570000000000002E-002
 C     18.922320779582506        13.104920779582507        30.096420779582505       -3.2570000000000002E-002
 C     18.755702101691536        17.952302101691537        29.929702101691536       -3.2570000000000002E-002
 C     12.070131759076396        16.701531759076396        29.915131759076395        1.9990000000000001E-002
 C     12.070013225680270        14.160013225680270        29.915013225680273        1.9990000000000001E-002
 C     19.545669986032046        14.230969986032045        29.986169986032046        1.9990000000000001E-002
 C     19.536939799703866        16.763739799703867        29.977439799703866        1.9990000000000001E-002
 C     21.085295784101458        14.384395784101457        30.068495784101458       0.22694000000000000     
 C     21.035236657200887        16.733636657200886        30.018436657200887       0.22694000000000000     
 C     10.695832561170839        14.314332561170840        29.998232561170841       0.22694000000000000     
 C     10.612129807389524        16.629829807389523        29.914429807389524       0.22694000000000000     
 O     21.610257624146847        15.487857624146846        29.972357624146849      -0.12278000000000000     
 O     9.9802426831635511        15.419342683163553        29.903642683163554      -0.12278000000000000     
 O     21.723724067988993        17.729524067988994        30.009224067988992      -0.27689000000000002     
 O     21.619738991539364        13.216138991539365        29.905338991539363      -0.27689000000000002     
 O     10.065793774929400        17.786193774929401        30.065693774929400      -0.27689000000000002     
 O     10.092043616302712        13.403043616302712        30.092043616302714      -0.27689000000000002     
 H     12.430648065769704        12.110948065769705        30.062948065769707        8.6370000000000002E-002
 H     12.407125647320532        19.022625647320531        30.039225647320531        8.6370000000000002E-002
 H     19.296686846743906        11.997986846743910        29.950086846743908        8.6370000000000002E-002
 H     19.365593514533657        19.002193514533658        30.018893514533659        8.6370000000000002E-002
 H     14.689013711925295        11.957113711925295        29.957113711925295        5.6320000000000002E-002
 H     14.780102899966263        19.079402899966265        30.048102899966263        5.6320000000000002E-002
 H     16.899113754257844        11.916613754257842        29.916613754257842        5.6320000000000002E-002
 H     16.959439246851868        19.008039246851865        29.976839246851867        5.6320000000000002E-002
