          38
 lvs    32.000000000000000        0.0000000000000000        0.0000000000000000        0.0000000000000000        32.000000000000000        0.0000000000000000        0.0000000000000000        0.0000000000000000        60.000000000000000     
 C     12.874585720371483        15.492885720371484        29.977185720371484       -5.6899999999999997E-003
 C     18.836920486362228        15.535520486362227        30.019920486362228       -5.6899999999999997E-003
 C     17.424803249425949        15.613603249425951        30.098003249425950        1.2380000000000000E-002
 C     14.470700209792637        15.598700209792637        30.083000209792637        1.2380000000000000E-002
 C     16.681291703339451        14.306991703339452        30.083991703339450        1.6310000000000002E-002
 C     15.095027330920665        14.200927330920665        29.977827330920665        1.6310000000000002E-002
 C     15.208408016980028        16.899408016980026        30.091208016980026        1.6310000000000002E-002
 C     16.641353285012855        16.852253285012853        30.044053285012854        1.6310000000000002E-002
 C     14.313531833564747        12.997631833564746        30.001831833564747       -3.8425000000000001E-002
 C     17.484601471211811        13.077701471211810        30.081901471211811       -3.8425000000000001E-002
 C     14.391482669644056        18.115182669644053        30.079682669644054       -3.8425000000000001E-002
 C     17.490185499043772        18.122785499043772        30.087385499043773       -3.8425000000000001E-002
 C     12.826238243117698        12.946438243117697        29.937838243117696       -3.2570000000000002E-002
 C     12.987816348434192        18.122016348434190        30.099316348434190       -3.2570000000000002E-002
 C     18.901287887478055        13.083887887478054        30.075387887478055       -3.2570000000000002E-002
 C     18.847024703729979        18.043624703729979        30.021024703729978       -3.2570000000000002E-002
 C     12.241016161646437        16.872416161646438        30.086016161646437        1.9990000000000001E-002
 C     12.206478987662628        14.296478987662628        30.051478987662627        1.9990000000000001E-002
 C     19.477148173967890        14.162448173967888        29.917648173967891        1.9990000000000001E-002
 C     19.514539845868505        16.741339845868506        29.955039845868505        1.9990000000000001E-002
 C     20.980349441448226        14.279449441448225        29.963549441448226       0.22694000000000000     
 C     21.112574149458258        16.810974149458257        30.095774149458258       0.22694000000000000     
 C     10.703617564554875        14.322117564554876        30.006017564554877       0.22694000000000000     
 C     10.760004125534055        16.777704125534054        30.062304125534055       0.22694000000000000     
 O     21.708417054001664        15.586017054001667        30.070517054001666      -0.12278000000000000     
 O     10.143482717781270        15.582582717781271        30.066882717781269      -0.12278000000000000     
 O     21.644752652832061        17.650552652832062        29.930252652832060      -0.27689000000000002     
 O     21.697251952409278        13.293651952409279        29.982851952409277      -0.27689000000000002     
 O     10.010221210492400        17.730621210492401        30.010121210492400      -0.27689000000000002     
 O     9.9947685390375707        13.305768539037571        29.994768539037569      -0.27689000000000002     
 H     12.399870631348847        12.080170631348848        30.032170631348848        8.6370000000000002E-002
 H     12.369315036724593        18.984815036724594        30.001415036724595        8.6370000000000002E-002
 H     19.293132557181274        11.994432557181273        29.946532557181275        8.6370000000000002E-002
 H     19.398713498245112        19.035313498245113        30.052013498245113        8.6370000000000002E-002
 H     14.795997347313120        12.064097347313121        30.064097347313119        5.6320000000000002E-002
 H     14.769558361938774        19.068858361938776        30.037558361938775        5.6320000000000002E-002
 H     16.997463357827311        12.014963357827309        30.014963357827309        5.6320000000000002E-002
 H     16.883491267940489        18.932091267940486        29.900891267940487        5.6320000000000002E-002
