 7
na,ne,core 3 4 f | Etot(-1512.48)=T(751.546)+ee(647.251)+ea(-3148.65)+aa(158.53) 
  O   -0.054841   0.000000  -0.117854 
  H    0.887105   0.000000   0.683742 
  H   -0.880789   0.000000   0.674609 
 e2     0.682333   0.000000   0.512430   2.0   1.0 
 e2    -0.670364   0.000000   0.512427   2.0   1.0 
 e2     0.009820   0.519605  -0.319574   2.0   1.0
 e2     0.009820  -0.519605  -0.319574   2.0   1.0 
 