28
lvs 11.5 10.3    0.0  0.0  5.1    0.0  0.0  0.0   20.0
H      3.63190    2.93220   -0.85238       0.115
C      0.48701    3.36966    0.19298	   0.0	
C      0.15615    4.52275    0.16710	   0.0	
O      5.23915    5.12815   -0.24696	  -0.58	
H     -5.23218   -3.30586    2.09707	   0.33	
C     -1.68615    1.30617    0.10470	  -0.12	
H     -2.89543   -0.15828   -1.09421	   0.115
C     -0.15116    0.91817    0.13905	   0.0	
C      0.83364    1.87813    0.21390	   0.0	
C      3.33852    2.73927    0.16623	  -0.115
C      2.36289    1.54761    0.41262	  -0.12	
C      4.79541    4.72630    0.98857	   0.79	
C     -4.10162   -1.82083    0.90560	   0.47	
C      3.82387    3.54995    1.16035	  -0.115
C     -3.19881   -0.60762    0.97222	  -0.115
O      5.19759    5.33522    2.16613	  -0.65	
N     -4.41376   -2.50162    2.08267	  -0.70	
H      3.55788    3.35664    2.18505	   0.115
H     -2.95497   -0.30114    1.97468	   0.115
H     -4.12624   -2.05935    2.97501	   0.33	
H     -4.48098   -1.83513   -1.15997	   0.07	
N     -4.57272   -2.38580   -0.28970	  -0.50	
H     -1.89199    1.80688    1.04009	   0.06	
H     -1.81760    2.00879   -0.70543	   0.06	
C     -2.66743    0.11073   -0.07521	  -0.115
H      2.48654    1.20466    1.43302	   0.06	
H      2.60897    0.72611   -0.24725	   0.06	
H      5.79357    6.04764    1.96673	   0.44	
