10
lvs 64.0 0.0 0.0 0.0 64.0 0.0 0.0 0.0 64.0
    C     -2.79474373      0.43108599     -0.16041013      4.07849660
    C     -3.96481348     -0.30796484     -0.05315966      4.15574332
    N     -1.74934317     -0.44946588     -0.23135996      5.05152126
    H     -4.96598125      0.09629356      0.02188079      0.91887607
    C     -3.60044938     -1.67599768     -0.06076130      4.15574564
    C     -2.21809412     -1.73401195     -0.17243856      4.07849256
    H     -1.54427460     -2.58166626     -0.21361818      0.91927530
    H     -4.26772012     -2.52539854      0.00729982      0.91887371
    H     -0.77374269     -0.18917329     -0.31505230      0.80370138
    H     -2.63188989      1.50197228     -0.19094054      0.91927415
