18
lvs 64.0 0.0 0.0 0.0 64.0 0.0 0.0 0.0 64.0
    H     -1.80341595     -1.96110274      0.33039995      0.80122522
    N     -6.37193757      0.06129289      0.11646828      5.17163301
    H     -0.43924282     -0.99947743      0.38836128      0.80189654
    C     -4.31887497     -1.17378145     -0.06701827      4.15122447
    C     -2.14235432      0.04951344      0.08864545      3.78931372
    N     -1.34059300      1.21691485      0.22705918      5.42879249
    H     -1.77603472      2.05776811     -0.14060316      0.80129664
    H     -0.42265631      1.07929541     -0.18201210      0.80187990
    C     -3.51263894      0.05620534      0.07774488      4.11062404
    N     -1.35211316     -1.12756592     -0.03494692      5.42909656
    H     -3.80322997      2.25049963      0.29508769      0.93838194
    C     -4.31067628      1.29344392      0.20166121      4.15062951
    C     -5.67088699     -1.14117796     -0.05698453      4.00414068
    H     -3.81871566     -2.12975083     -0.20127250      0.93795922
    H     -6.27410150      2.16396994      0.30034302      0.93472015
    C     -5.66290798      1.26826891      0.20716990      4.00439856
    H     -6.28855760     -2.03082764     -0.16462388      0.93475695
    H     -7.38041368      0.07487118      0.02391763      0.80803041
