17
lvs 64.0 0.0 0.0 0.0 64.0 0.0 0.0 0.0 64.0
    C      2.55972350      0.77569211      0.24689631      4.03960049
    H      0.65244035      1.92081494      0.59822909      0.91954637
    C      3.73426335      1.25845918     -0.44576801      3.73066995
    C      2.32627216      2.88102232     -0.49966388      3.94459532
    C      1.65385112      1.87873051      0.18806355      4.24566800
    H      5.66063147      0.80255847     -1.07374718      0.78510061
    N      4.83838940      0.45073885     -0.59025556      5.12026451
    N      3.60392263      2.51390724     -0.89586275      5.44478457
    C      2.57233600     -0.51800787      0.76281052      4.04623266
    N      6.02837882     -1.54983061     -0.23984885      5.40445938
    C      4.84361832     -0.81763569     -0.09065860      3.72841217
    C      3.72279350     -1.31405302      0.59359512      4.25267037
    H      1.95686795      3.87278057     -0.73844690      0.92118814
    H      5.93424722     -2.55174581     -0.11845280      0.78426653
    H      1.71493924     -0.92937035      1.29286657      0.92115092
    H      6.61069392     -1.29996802     -1.03165023      0.79521887
    H      3.76497945     -2.32580455      0.98439897      0.91617115
