15
lvs 64.0 0.0 0.0 0.0 64.0 0.0 0.0 0.0 64.0
    C      2.67230150      0.70507632      0.05940369      4.03746538
    H      1.73303116     -1.07780604      0.90325968      0.92748837
    C      3.91137214      1.20890414     -0.42770125      3.72999821
    C      2.40095599      2.85292071     -0.59900738      4.03802382
    C      1.72553241      1.77574655     -0.06155737      4.20503057
    H      5.93921045     -1.32148679     -0.08768570      0.93012527
    N      5.08107112      0.52600687     -0.49488433      5.34400294
    N      3.72053353      2.51190302     -0.82047746      5.13320358
    C      2.64493542     -0.62448460      0.51688367      4.05432932
    H      3.86940717     -2.37239036      0.79662198      0.92978895
    C      5.01427409     -0.74113424     -0.04836999      3.92068942
    H      0.67877845      1.75753871      0.21196488      0.90580706
    C      3.83582486     -1.33942103      0.45515844      4.14781412
    H      4.43123318      3.12078543     -1.20827636      0.78655877
    H      2.03993322      3.84516610     -0.84291590      0.90967423
