17
lvs 64.0 0.0 0.0 0.0 64.0 0.0 0.0 0.0 64.0
    C      3.23623967      0.95643620     -0.26477421      3.89750475
    H      2.06323810      3.95077898     -1.35278547      0.93134487
    C      4.58011933      1.38515646     -0.03647006      3.67767770
    C      2.76218413      3.20655894     -0.97862017      4.14005059
    C      2.31749261      1.87871411     -0.74180208      4.17526361
    N      5.00408320      2.63717768     -0.25822120      5.39837948
    N      5.51154763      0.45946363      0.44310451      5.22423199
    C      4.08067104      3.53806539     -0.73018610      3.95221569
    N      2.90320067     -0.38470106      0.00393591      5.21115649
    H      1.28567440      1.58751569     -0.92782105      0.93042118
    C      5.14302138     -0.88130162      0.70575151      4.07258593
    H      4.44787509      4.55002083     -0.90293116      0.92690789
    C      3.87298336     -1.28908914      0.49165980      4.06202313
    H      6.46019973      0.77681046      0.60015794      0.78331018
    H      1.95298875     -0.70190952     -0.14985260      0.79593443
    H      5.92368977     -1.53365180      1.07719445      0.90939709
    H      3.53512562     -2.30207572      0.67501320      0.91159499
