13
lvs 64.0 0.0 0.0 0.0 64.0 0.0 0.0 0.0 64.0
    C      4.55396553      2.77249680     -0.95414175      3.91273477
    C      1.11789541      1.69840772     -0.44199972      4.21998916
    N      4.60450176      1.42882239     -0.95822472      5.39586841
    N      3.28211597      3.27419036     -0.76599305      5.12278255
    C      2.44851584      2.17142367     -0.63901443      4.00928360
    H      3.02418130      4.25258763     -0.73020450      0.79686134
    C      1.21934548      0.30701620     -0.45439246      4.07954828
    H      0.43800516     -0.43463335     -0.33812989      0.91508035
    N      2.53367613     -0.08000360     -0.64816764      5.11298758
    C      3.28581659      1.06535027     -0.76083345      3.82131780
    H      2.86397406     -1.03616528     -0.69342186      0.79395457
    H      0.20857440      2.26924831     -0.30694769      0.91198442
    H      5.41762273      3.41189157     -1.08406454      0.90760718
