15
lvs 64.0 0.0 0.0 0.0 64.0 0.0 0.0 0.0 64.0
    C     -2.20283144     -1.14611614     -0.17144906      3.61719392
    C     -3.60566566     -1.18102029      0.00213012      4.26348312
    N     -1.49593487      0.00845813     -0.28039286      5.47013349
    C     -4.29383417      0.02876520      0.06558936      4.00669947
    C     -2.19205981      1.17312523     -0.22058366      3.61721314
    H     -4.10436373      2.18715704     -0.00689111      0.92675723
    N     -1.44599824      2.33565378     -0.37771021      5.39822945
    H     -1.83691043      3.19887627     -0.02249742      0.80195115
    H     -1.86713620     -3.16523394      0.11082984      0.80195254
    H     -5.37453250      0.03669927      0.20338984      0.93738284
    H     -0.45135215      2.21513933     -0.23852862      0.78528599
    C     -3.59451508      1.22834245     -0.04926906      4.26347448
    H     -0.47206279     -2.20487635     -0.14536095      0.78530229
    N     -1.46788025     -2.32121892     -0.27947597      5.39817615
    H     -4.12429488     -2.13241473      0.08547126      0.92676474
