18
lvs 64.0 0.0 0.0 0.0 64.0 0.0 0.0 0.0 64.0
C     -2.74632    1.38577    0.00029 -0.115
C     -3.03090    0.02167    0.00025 -0.115
C     -1.42316    1.82327    0.00028 -0.115
H     -2.22466   -1.97134    0.00022 0.115
C      0.37881   -1.40286    0.00013 -0.115
C     -0.37962    0.89607    0.00020 0.0
H      2.51368   -1.68756   -0.00004 0.115
H      1.17786    2.39225    0.00011 0.115
C     -1.99303   -0.90868    0.00025 -0.115
H     -3.55727    2.10993    0.00034 0.115
H     -1.21009    2.88974    0.00031 0.115
C     -0.66548   -0.47619    0.00020 0.0
H      0.16694   -2.46961    0.00010 0.115
H     -4.06396   -0.31726    0.00027 0.115 
C      1.70187   -0.96436    0.00004 -0.115
C      1.98568    0.39990    0.00004 -0.115
C      0.94739    1.32943    0.00017 -0.115
H      3.01841    0.73998   -0.00006 0.115
