16
lvs 64.0 0.0 0.0 0.0 64.0 0.0 0.0 0.0 64.0
    C      3.08891475      0.84813370     -0.05817788      4.06824235
    H      1.81854506      3.92673669     -0.80666291      0.90221103
    C      4.50227621      1.17425602     -0.32980454      3.62553720
    C      2.53268339      3.11902150     -0.65773822      4.15714148
    C      2.11434991      1.90131090     -0.24655052      4.09223899
    N      4.91769887      2.35918663     -0.73076096      5.41350674
    N      5.46291817      0.15861633     -0.14988089      5.33980916
    C      3.97982803      3.39787393     -0.92093554      3.44643394
    C      2.76176488     -0.41949177      0.35465203      3.98768324
    H      1.74685564     -0.74570121      0.57629920      0.90782470
    C      5.07773648     -1.02603288      0.24577411      3.80420938
    H      1.06189682      1.68373886     -0.05083252      0.92737365
    N      3.76039429     -1.35882788      0.50642858      5.13709861
    O      4.33853586      4.51896933     -1.29741071      6.49511380
    H      5.81195088     -1.82302659      0.38906938      0.91154054
    H      3.52768020     -2.29930354      0.81096879      0.78403520
