9
lvs 64.0 0.0 0.0 0.0 64.0 0.0 0.0 0.0 64.0
    C      2.63455365     -1.81913161     -0.37538610      3.86499835
    N      1.59233919     -1.09932834     -0.10548404      5.36323817
    C      3.89340682     -1.02172399     -0.46432564      4.11062783
    C      2.06511747      0.27712809      0.01257468      3.41322081
    H      4.23437966      1.11399024     -0.21255387      0.88402658
    O      1.36190516      1.23159367      0.25430591      6.38282403
    H      2.56631232     -2.89758912     -0.51725357      0.90131266
    C      3.56794157      0.25844136     -0.22828026      4.17963870
    H      4.87672170     -1.42803911     -0.68181767      0.90011287
