12
lvs 64.0 0.0 0.0 0.0 64.0 0.0 0.0 0.0 64.0
    C      2.04147284     -1.22125186      0.10546196      3.36753174
    N      3.44097158     -1.19275929      0.26191999      5.23278527
    N      1.41629231      0.01821714      0.02214092      5.29905509
    C      4.15421557     -0.01491093      0.33449824      3.94634176
    C      2.07251547      1.26863726      0.09387750      3.45712864
    H      4.11151533      2.11004383      0.31839568      0.88128689
    O      1.41177918      2.30312591      0.01771504      6.52157186
    O      1.42903963     -2.28891230      0.04784237      6.58147745
    H      5.23036802     -0.12523911      0.45546071      0.90168198
    H      0.40570330      0.02311746     -0.09169652      0.75368035
    C      3.53707995      1.19342755      0.25849300      4.29266798
    H      3.90977313     -2.09135364      0.32316710      0.76479100
