11
lvs 64.0 0.0 0.0 0.0 64.0 0.0 0.0 0.0 64.0
C     -3.05787    1.15421    0.30227 -0.3
C     -2.11435    0.37777    0.29432 0.0
C      0.04082   -0.40698    1.03546 -0.23
H     -1.82451   -1.48064   -1.54947 0.0600
H     -0.18935   -1.99233   -1.13634 0.0600
C     -1.03219   -0.56106    0.24460 0.0
C     -1.16016   -1.72043   -0.71545 -0.1800
H     -3.90207    1.80448    0.27277 0.3
H     -1.56407   -2.59922   -0.20758 0.0600
H      0.12375    0.42831    1.72777 0.115
H      0.86654   -1.11408    1.01283 0.115
