26

C -0.709418 -1.236532 -0.000661  0.00  1 
C  0.000000  0.000000  0.000000  0.00  1
C -0.706030  1.225054 -0.000661  0.00  1
C -2.114334  1.204998  0.000819  0.00  1
C -2.814742  0.000000  0.000000  0.00  1
C -2.115755 -1.207673 -0.001968  0.00  1
C -0.570612  3.650667  0.228536  0.00  0
C  0.477276  4.741322  0.075263  0.00  0
C  1.446885  0.032101  0.030190  0.00  2
C  2.653115  0.031975  0.055360 -0.10  2
C -0.039822 -2.576018  0.007903 +0.20  1
O -0.014721  2.402086  0.001990  0.00  0
O  1.177444 -2.677164  0.014550 -0.20  1
O -0.787775 -3.702328  0.008969 -0.20  0
N -4.231776  0.004181  0.004531 -0.20  0
H -2.683854  2.123036  0.002441  
H -2.682807 -2.130305  0.000370  
H -4.755080  0.892180  0.005427 +0.10
H -4.761258 -0.879613  0.011868 +0.10
H -0.383186 -4.581411  0.014337 +0.20
H  3.711346  0.007036  0.077502 +0.10
H -0.981193  3.681799  1.261741  
H -1.381018  3.859521 -0.502289  
H  0.016441  5.725621  0.308822  
H  1.325971  4.567837  0.768589  
H  0.850342  4.764219 -0.970563  
