16
XYZ file generated by Avogadro.
O      1.03659    1.58445   -1.28457    -0.2
H      0.95889    0.90616   -0.34134    +0.2
C     -0.20653    2.25915   -1.10273    
H     -0.50911    2.72226   -2.04618    
H     -0.96846    1.52876   -0.81710    
C     -0.10245    3.33321    0.00231    
H     -1.08678    3.79769    0.09799    
H      0.10971    2.86082    0.96472    
C      0.93289    4.44805   -0.29702    
H      0.50660    5.39920    0.03109   
H      1.10544    4.54072   -1.37267    
C      2.27134    4.26009    0.45389    
H      2.08080    4.00936    1.50114    
H      2.82987    5.19960    0.42465    
O      3.07336    3.24319   -0.14840    +0.2
H      3.41998    2.73094    0.83421    +0.2
