6

C      0.0116289270     -0.1668986976      0.0000000000       0.000000
C     -0.0116267776      1.1668986111      0.0000000000       0.000000
O     -1.0384130258     -0.7978004060      0.0000000000       0.400000
O      1.0384151776      1.7978003155      0.0000000000       0.400000
H      0.9693273522     -0.6977835854      0.0000000000       0.000000
H     -0.9693252013      1.6977835016      0.0000000000       0.000000