34
Model[1]: Jmol 16.1.47  2023-11-25 18:37
C      -0.80257      1.01070     -0.64086	+0.416
O      -1.20198      0.98322      0.64269	-0.537	-0.8
O       0.28516      1.47407     -0.95088	-0.432
H      -0.45607      1.37064      1.16710	+0.431	+0.8
C      -1.70617      0.32000     -1.62042	+0.122
C       2.36590      1.75529      1.23085	+0.416
O       1.23337      1.80403      1.68760	-0.432
O       2.60125      1.35406     -0.03152	-0.537	-0.8
H       1.71750      1.31996     -0.48192	+0.431	+0.8
C       3.64506      2.07961      1.97773	+0.122
H       3.44368      2.95380      2.60873
H       3.87788      1.23145      2.62422
C       4.82577      2.38631      1.04576
H       4.56231      3.20411      0.36821
C       6.09273      2.74151      1.81570
H       5.03286      1.51228      0.41176
H       5.92671      3.65009      2.40708
H       6.34110      1.94349      2.51783
C       7.26644      2.96177      0.87417
H       7.06473      3.77757      0.17612
H       8.16507      3.21438      1.43948
H       7.47856      2.05677      0.29030
H      -1.56848     -0.75841     -1.47867
C      -3.17676      0.74269     -1.55506
H      -1.32668      0.55409     -2.61696
C      -4.05076     -0.45768     -1.19814
H      -3.33880      1.55390     -0.83403
H      -3.47260      1.13590     -2.53154
H      -3.90796     -0.69594     -0.14251
C      -5.52580     -0.22315     -1.47374
H      -3.73672     -1.34139     -1.76690
H      -5.81256      0.82203     -1.33858
H      -5.77015     -0.52107     -2.49677
H      -6.13429     -0.83758     -0.80106
