20
Model[1]: Jmol 16.1.47  2023-11-25 18:37
C      -2.55327      0.87832     -0.00001
C      -1.31991      0.00022      0.00000
C      -0.08607      0.87454     -0.00001
C       1.13496     -0.01362     -0.00001
C       2.36998      0.85151     -0.00001
C       3.57460     -0.05241     -0.00001
C       4.81364      0.80112     -0.00001
C       6.00282     -0.11782     -0.00001
C       7.24735      0.72420     -0.00001
C       8.42190     -0.21017     -0.00001
C       9.67649      0.61545     -0.00001
C      10.83354     -0.34291      0.00000
C      12.09815      0.46248      0.00000
C      13.26288     -0.48892      0.00000
C      14.50404      0.35330      0.00000
C      15.71937     -0.53321     -0.00001
C      16.91118      0.38534     -0.00001
C      18.18267     -0.42165     -0.00001
C      19.33763      0.55040      0.00000
C      20.64159     -0.21788      0.00000
