30
#Model[1]: Entropic Spring with 30 atoms
C     -14.0000      0.0000      0.0000
C     -13.0000      1.0000      0.0000
C     -12.0000     0.0000      0.0000
C     -11.0000      1.0000      0.0000
C     -10.0000     0.0000      0.0000
C      -9.0000      1.0000      0.0000
C      -8.0000     0.0000      0.0000
C      -7.0000      1.0000      0.0000
C      -6.0000     0.0000      0.0000
C      -5.0000      1.0000      0.0000
C      -4.0000     0.0000      0.0000
C      -3.0000      1.0000      0.0000
C      -2.0000     0.0000      0.0000
C      -1.0000      1.0000      0.0000
C       0.0000     0.0000      0.0000
C       1.0000      1.0000      0.0000
C       2.0000     0.0000      0.0000
C       3.0000      1.0000      0.0000
C       4.0000     0.0000      0.0000
C       5.0000      1.0000      0.0000
C       6.0000     0.0000      0.0000
C       7.0000      1.0000      0.0000
C       8.0000     0.0000      0.0000
C       9.0000      1.0000      0.0000
C      10.0000     0.0000      0.0000
C      11.0000      1.0000      0.0000
C      12.0000     0.0000      0.0000
C      13.0000      1.0000      0.0000
C      14.0000     0.0000      0.0000
C      15.0000      1.0000      0.0000
