116
#
H     -0.99054    2.23918    2.19039
H      1.61370    2.39578    5.27711
H     -0.75739    4.75951    1.87877
H      1.86541    4.89293    4.94154
H     -1.46936   -2.78711    2.89995
H      1.07370   -2.55568    6.03219
H      0.79249   -5.04181    6.44711
H      1.34789   -0.08190    5.63810
H      1.09860    0.79531    2.68119
H     -0.45910    7.03357    2.85484
H      1.97643    6.87040    3.43322
H     -2.42932    0.03306    3.83435
H     -0.21926    6.32331    4.49277
H      1.56817    5.83977    2.01290
C     -1.35086   -6.29564    5.19825
H      2.28492   -2.89391    4.73903
H     -2.68581   -2.45750    4.19102
H      3.04302    4.61260    3.60567
H     -2.18247    2.52924    3.51360
H      0.85593   -1.71702    3.06055
H     -1.93571    5.04571    3.21326
H      2.79945    2.09581    3.95126
H      2.54601   -0.40213    4.32837
H     -1.22382   -0.27619    2.52804
H     -0.47434    3.80584    4.80900
H      1.33425    3.30927    2.33490
C      0.42709   -4.01864    4.54998
C     -1.09273   -3.81770    4.78821
C      1.20163   -2.74567    4.94272
C     -1.60155   -2.60261    3.98995
C      0.68826   -1.52921    4.14618
C     -0.82914   -1.33314    4.39825
C      1.46454   -0.25868    4.54511
C     -1.34655   -0.10758    3.62152
C      0.94158    0.96777    3.77107
C     -0.57354    1.15745    4.04105
C      1.71999    2.23389    4.18087
C     -1.10191    2.39303    3.28738
C      1.18721    3.46866    3.42828
C     -0.32601    3.65347    3.71477
C      1.96415    4.73390    3.84458
C     -0.85915    4.89833    2.97813
C      1.41924    5.96532    3.10822
C     -0.07499    6.14709    3.40360
H     -0.73172    1.32228    5.13200
H     -0.99822   -1.15230    5.48498
C      0.92961   -5.23177    5.35885
C      0.15274   -6.49623    4.96685
H      0.33499   -6.72467    3.89375
H     -1.53942   -6.12218    6.28081
H     -1.26961   -3.62311    5.87124
C     -1.86190   -5.09370    4.39201
H      2.01251   -5.39452    5.16775
H      0.60323   -4.21684    3.46752
H     -1.90073   -7.21145    4.89234
H      0.51130   -7.35670    5.57153
H     -1.72523   -5.29533    3.30610
H     -2.94787   -4.95902    4.58754
H      0.83012   -2.26111   12.10346
H      2.09282   -5.09444    9.51266
H     -1.43406   -3.42451   12.25682
H     -0.14644   -6.26249    9.69453
H      5.35251    0.06020   11.70870
H      6.52992   -2.75282    9.05687
H      8.75893   -1.57258    8.79112
H      4.31245   -3.92452    9.30189
H      3.00695   -3.65805   12.09468
H     -3.27042   -4.71785   11.17604
H     -2.12439   -6.94539   11.04327
H      2.53650   -0.29753   10.40868
H     -2.30344   -4.86977    9.66386
H     -1.52987   -5.98346   12.44591
C      8.92851    1.03392    9.74144
H      7.11723   -3.55373   10.56263
H      4.77083    0.86954   10.20475
H      0.36929   -7.05003   11.23196
H      0.29834   -1.46271   10.57523
H      5.26957   -2.49795   11.87253
H     -1.95562   -2.63844   10.72017
H      2.63098   -5.88296   11.04317
H      4.87605   -4.71843   10.82027
H      3.09329   -1.10292   11.92414
H     -0.04949   -3.68813    9.50195
H      0.74477   -4.81671   12.28300
C      7.42225   -1.39579   10.51203
C      6.69899   -0.12273    9.99902
C      6.60179   -2.65270   10.16331
C      5.28413   -0.03394   10.60143
C      5.18421   -2.56054   10.76313
C      4.46822   -1.28956   10.23732
C      4.36748   -3.81888   10.40882
C      3.04353   -1.19988   10.81630
C      2.94025   -3.72484   10.98412
C      2.23345   -2.45576   10.44161
C      2.12987   -4.98480   10.61984
C      0.79862   -2.36305   10.99528
C      0.69428   -4.88790   11.17174
C     -0.00507   -3.62078   10.61373
C     -0.11496   -6.14702   10.80090
C     -1.44784   -3.52958   11.14913
C     -1.54980   -6.03986   11.33501
C     -2.23799   -4.78999   10.77179
H      2.17345   -2.51864    9.33039
H      4.38886   -1.34827    9.12713
C      8.83440   -1.48100    9.89797
C      9.64629   -0.22541   10.24490
H      9.77609   -0.16173   11.34765
H      8.84801    0.99639    8.63252
H      6.60358   -0.17926    8.89005
C      7.52377    1.13094   10.35231
H      9.36472   -2.37759   10.28597
H      7.52076   -1.33724   11.62059
H      9.51832    1.93452   10.01653
H     10.65299   -0.29181    9.77934
H      7.61009    1.22722   11.45766
H      7.01861    2.04080    9.96158
