58
 
C      0.2678431339      7.4713280092     -2.9242470450       0.000000
O      0.9572653353      6.3959476973     -2.2392452227       0.000000
C     -1.2610508532      7.1716720828     -2.8966702995       0.000000
O     -1.8722601292      7.5305689088     -4.1524872139       0.000000
C     -1.3507911985      5.6639565199     -2.6421313394       0.000000
C      0.1083401079      5.2144423442     -2.3324369943       0.000000
N      0.1624672603      4.4195437555     -1.0441111631       0.000000
C      0.1685381134      2.9216896356     -1.0449322695       0.000000
O      0.1346444946      2.2607359748     -2.0806221325       0.000000
N      0.2084112675      2.2515815337      0.2673514931      -0.200000
C      0.2371175462      3.0683479105      1.5058982710       0.400000
O      0.4472307209      2.3624098712      2.7310431066      -0.200000
C      0.2014545547      4.4402645706      1.4777218396       0.000000
C      0.1993330864      5.2478742713      2.8343974922       0.000000
C      0.1690124373      5.1233447577      0.2916070050       0.000000
C     -0.5813867197     -9.6262280501      1.6048148316       0.000000
C     -0.1736746114     -8.6324022874      0.4773015827       0.000000
O     -0.9144850548     -7.3955114705      0.6243054456       0.000000
C      1.3513079606     -8.3027975210      0.5375604105       0.000000
O      2.0871029558     -9.0704559996     -0.4359361749       0.000000
C      1.4323575682     -6.8062809611      0.2283210795       0.000000
C     -0.0467807135     -6.3219412790      0.1609106195       0.000000
N     -0.2456556738     -5.0951674730      1.0029785099       0.000000
C     -0.4992539905     -5.0526194528      2.4247036527       0.000000
N     -0.5453391206     -3.7930129944      2.8011916826       0.000000
C     -0.3330488938     -3.0433753231      1.7332613177       0.000000
C     -0.2965359245     -1.6836488594      1.7164543422       0.100000
N     -0.5001632863     -0.8384923120      2.9126066663      -0.300000
N     -0.0297988048     -1.0652630789      0.3839228806       0.000000
C      0.1681970734     -1.9918252843     -0.7884490180       0.100000
N      0.1068757347     -3.3066508057     -0.6331012621       0.000000
C     -0.1383506229     -3.7603098710      0.5949151407       0.000000
C      0.5902144314      8.8278826516     -2.2304422820       0.000000
H     -0.7373977511    -10.6852909182      1.3723276855       0.000000
H     -0.3051698949     -6.0898901989     -0.8818485272       0.000000
H      0.4765621811      4.5944811270     -3.1608103126       0.000000
H      0.6028464620      8.8973494057     -1.1366947592       0.000000
H      0.8023661509      9.7163798663     -2.8350656162       0.000000
H     -0.6806978610     -1.2608978236      3.8219688728       0.150000
H     -0.4525483532      0.1764437724      2.8281048208       0.150000
H      0.2173409085      1.2328260716      0.3365127062       0.200000
H      0.1424986965      6.2206982179      0.3053196796       0.000000
H      0.3657733346     -1.5728355497     -1.7805658822       0.000000
H     -0.6299441347     -5.9205263269      3.0809069402       0.000000
H      0.0006176156      6.3108900369      2.6504192589       0.000000
H     -0.5783355192      4.8515870001      3.4981651925       0.000000
H      1.1761224359      5.1454963764      3.3210657419       0.000000
H     -2.8287543631      7.5791692625     -3.9699589125       0.000000
H     -2.0143483352      5.4636156734     -1.7900579831       0.000000
H     -1.7255857726      5.1388305844     -3.5311021085       0.000000
H     -1.7483987915      7.7158443395     -2.0720042857       0.000000
H      0.6218954709      7.5128905628     -3.9639283097       0.000000
H      2.1968234494     -9.9537447351     -0.0381978841       0.000000
H     -0.4209229791     -9.0801388292     -0.4954756278       0.000000
H      1.7541506322     -8.4907602588      1.5453774627       0.000000
H      1.9808135966     -6.2855583121      1.0251891752       0.000000
H      1.9299245993     -6.6308903922     -0.7351354174       0.000000
H     -0.7099901677     -9.2694033618      2.6330797627       0.000000
E      0.0516981302      2.0523445908      2.7685390971      -0.200000
E     -0.0060520655     -0.5598004109      0.3269384171      -0.200000
