8
lvs 5.5 0.0 0.0    0.0 5.0 0.0   0.0 0.0 10.0
C     1.52709      0.00000    0.00591
O     2.05801     -0.00000    1.19060
O     2.20160     -0.00000   -1.00463
H     3.00000      0.00000    1.00000
C    -0.02709     -0.00000   -0.00591
O    -0.70160     -0.00000    1.00463
O    -0.55801     -0.00000   -1.19060
H    -1.50000      0.00000   -1.00000
