
 OpenBabel06161714423D

 22 21  0  0  0  0  0  0  0  0999 V2000
  -11.2145   -7.5535    0.0347 O   0  0  0  0  0  0  0  0  0  0  0  0
  -12.6415   -7.5921   -0.0080 C   0  0  0  0  0  0  0  0  0  0  0  0
  -13.2006   -6.1581    0.0155 C   0  0  0  0  0  0  0  0  0  0  0  0
  -14.6706   -6.1648    0.0098 C   0  0  0  0  0  0  0  0  0  0  0  0
  -15.8911   -6.2098    0.0141 C   0  0  0  0  0  0  0  0  0  0  0  0
  -17.2654   -6.2719    0.0241 C   0  0  0  0  0  0  0  0  0  0  0  0
  -18.4859   -6.3168    0.0374 C   0  0  0  0  0  0  0  0  0  0  0  0
  -19.9564   -6.3223    0.0623 C   0  0  0  0  0  0  0  0  0  0  0  0
  -20.5245   -4.8954   -0.0793 C   0  0  0  0  0  0  0  0  0  0  0  0
  -22.0624   -4.8933   -0.0124 C   0  0  0  0  0  0  0  0  0  0  0  0
  -10.9413   -7.1428    0.8752 H   0  0  0  0  0  0  0  0  0  0  0  0
  -12.9632   -8.0983   -0.9229 H   0  0  0  0  0  0  0  0  0  0  0  0
  -13.0162   -8.1513    0.8544 H   0  0  0  0  0  0  0  0  0  0  0  0
  -12.8514   -5.6354    0.9090 H   0  0  0  0  0  0  0  0  0  0  0  0
  -12.8421   -5.6054   -0.8562 H   0  0  0  0  0  0  0  0  0  0  0  0
  -20.3229   -6.9520   -0.7520 H   0  0  0  0  0  0  0  0  0  0  0  0
  -20.2921   -6.7663    1.0026 H   0  0  0  0  0  0  0  0  0  0  0  0
  -20.1305   -4.2597    0.7180 H   0  0  0  0  0  0  0  0  0  0  0  0
  -20.2047   -4.4650   -1.0319 H   0  0  0  0  0  0  0  0  0  0  0  0
  -22.4061   -5.2735    0.9524 H   0  0  0  0  0  0  0  0  0  0  0  0
  -22.4432   -3.8771   -0.1361 H   0  0  0  0  0  0  0  0  0  0  0  0
  -22.4844   -5.5172   -0.8037 H   0  0  0  0  0  0  0  0  0  0  0  0
  1 11  1  0  0  0  0
  2  1  1  0  0  0  0
  2  3  1  0  0  0  0
  2 13  1  0  0  0  0
  3  4  1  0  0  0  0
  3 14  1  0  0  0  0
  4  5  3  0  0  0  0
  5  6  1  0  0  0  0
  6  7  3  0  0  0  0
  7  8  1  0  0  0  0
  8 17  1  0  0  0  0
  9 10  1  0  0  0  0
  9  8  1  0  0  0  0
  9 18  1  0  0  0  0
 10 20  1  0  0  0  0
 12  2  1  0  0  0  0
 15  3  1  0  0  0  0
 16  8  1  0  0  0  0
 19  9  1  0  0  0  0
 21 10  1  0  0  0  0
 22 10  1  0  0  0  0
M  END
