26
XYZ file generated by Avogadro.
Si    -2.21321    1.84157   -0.20380
Si    -2.96215    2.08274    1.88455
Si    -2.70958   -0.20602   -0.93874
Si    -0.00022    2.12451   -0.23747
Si     0.96718    0.60524    1.08035
Si     0.21709    0.85048    3.16725
Si     0.46687   -1.44249    0.34833
Si    -1.74615   -1.72677    0.38008
Si    -2.49429   -1.48146    2.46786
Si    -1.99564    0.56510    3.20434
H     -2.84952    2.84252   -1.07178
H     -2.62994    3.43025    2.36845
H     -4.41887    1.88895    1.90561
H     -4.16725   -0.39232   -0.91295
H     -2.20957   -0.36451   -2.31176
H      0.49078    1.95976   -1.61291
H      0.32607    3.47137    0.25176
H      2.42476    0.79224    1.05745
H      0.54234    2.20186    3.64563
H      0.85245   -0.15302    4.03369
H      0.95852   -1.60257   -1.02748
H      1.09761   -2.44040    1.22391
H     -2.07477   -3.07522   -0.10390
H     -1.85358   -2.48062    3.33477
H     -3.95265   -1.66405    2.48740
H     -2.48844    0.72553    4.57958
