15
XYZ file generated by Avogadro.
C     -1.46659    0.57300    0.13472
C     -1.90155   -0.75342    0.21561
C      0.39392   -1.43690    0.26296
C     -0.95767   -1.77466    0.27952
C      0.75227   -0.08952    0.18606
H     -3.21492   -1.05223    0.23196
H     -1.26877   -2.81413    0.34142
N     -2.35971    1.60200    0.05991
N     -0.15672    0.91058    0.12067
H     -3.35381    1.40869    0.11723
H     -2.03014    2.56026    0.05195
N      2.06412    0.28025    0.17700
H      2.79394   -0.42326    0.17475
H      2.31102    1.25901    0.07736
H      1.15316   -2.21354    0.31180
