13
XYZ file generated by Avogadro.
H     -2.37471   -2.44436   -0.02030
H     -3.44773   -1.07891   -0.00869
H     -2.51313    1.07219    0.01268
C      0.85431   -0.37047   -0.00759
C      0.78614    0.96315    0.00367
N     -0.22513   -1.21372   -0.01163
C     -1.40159   -0.67019   -0.00415
C     -0.55214    1.56596    0.01183
N     -1.58837    0.67885    0.00669
O     -0.71046    2.78080    0.02265
N     -2.50803   -1.44104   -0.00580
H      1.82533   -0.85870   -0.01380
H      1.64881    1.61225    0.00700
