6
#comment 
 O    0.432610529507    1.412838258269    0.620654812925   -0.49509 
 N   -1.722778424798   -0.738820124882   -1.086672773244   -0.33987 
 O    1.306777233086   -0.712552845290    0.463083467475   -0.57893 
 C    0.341694031316    0.258642321536    0.247401738547    0.71151 
 C   -0.819775394202   -0.309402748082   -0.504550793879    0.25389 
 H    2.023973717739   -0.244216385608    0.960728926538    0.44849 
