11

 N    1.100622707390    0.289704889257    0.829984130570 -0.5564471 
 C    0.385853005065    1.259155137506    0.212452615357  0.2832501 
 C    0.685817540810   -0.977143028484    0.595260981386  0.2765991 
 C   -0.392375458606   -1.307350908757   -0.214122367827 -0.2863091 
 C   -0.704307465421    1.018766292674   -0.612403517972 -0.2952621 
 C   -1.101924061816   -0.290061978242   -0.831034133259  0.0174071 
 H   -0.666435487456   -2.344322715163   -0.354734565635  0.1381371 
 H    0.713525433454    2.279092097072    0.395829556557  0.0737451 
 H   -1.948011746799   -0.512911739891   -1.469917048022  0.1329471 
 H    1.254878349347   -1.761033418063    1.088155673379  0.0749051 
 H   -1.228154829516    1.845890568624   -1.072448085110  0.1410291 
