15

N -2.143601 -0.212444 -0.000000 0.000000
C -0.830192 -0.631501 -0.000000 0.000000
C -0.085440  0.556036 -0.000000 0.000000
N -0.907375  1.672755 -0.000000 0.000000
C -2.120736  1.169864 -0.000000 0.000000
C 1.319454   0.401940  0.000000 0.000000
N 1.838273  -0.839654 -0.000000 0.000000
C 0.988130  -1.883493  0.000000 0.000000
N -0.350897 -1.883493  0.000000 0.000000
H 3.139525   1.297644 -0.192782 0.000000
N 2.160569   1.468734  0.000000 0.000000
H -2.957607 -0.814273 -0.000000 0.000000
H -3.040741  1.751647 -0.000000 0.000000
H 1.778142   2.383642 -0.201985 0.000000
H 1.463704  -2.869729 -0.000000 0.000000
