8
XYZ file generated by Avogadro.
C      0.18316   -0.25244    0.14677
C      0.18642    1.25531   -0.15059
H     -0.70280   -0.72367   -0.28459
H      1.07035   -0.72655   -0.27882
H     -0.70501    1.72794    0.26768
H      1.06821    1.72795    0.28781
H      0.17920   -0.42795    1.22508
H      0.19886    1.43072   -1.22860
