      38
lvs        48.000000000000000        0.000000000000000        0.000000000000000        0.000000000000000       48.000000000000000        0.000000000000000        0.000000000000000        0.000000000000000       60.000000000000000
 C   -8.4410564600239191        1.5250808640233950E-004   5.6568540000000000       -5.6899999999999997E-003
 C   -2.7603984830614832        4.9969675337990793E-005   5.6568540000000000       -5.6899999999999997E-003
 C   -4.1853120974058040        7.5738052295548641E-005   5.6568540000000000        1.2380000000000000E-002
 C   -7.0161428456777157        1.2683569973208716E-004   5.6568540000000000        1.2380000000000000E-002
 C   -4.8876076302411722       -1.2376348913505169        5.6568540000000000        1.6310000000000002E-002
 C   -6.3138919958556867       -1.2376091463843153        5.6568540000000000        1.6310000000000002E-002
 C   -6.3138473339045289        1.2378374897509814        5.6568540000000000        1.6310000000000002E-002
 C   -4.8875629261636879        1.2378117447843420        5.6568540000000000        1.6310000000000002E-002
 C   -7.0726165475385434       -2.4368410199094974        5.6568540000000000       -3.8425000000000001E-002
 C   -4.1289263725155809       -2.4368941546445555        5.6568540000000000       -3.8425000000000001E-002
 C   -7.0725286653931674        2.4370967179187883        5.6568540000000000       -3.8425000000000001E-002
 C   -4.1288383007174456        2.4370435831805422        5.6568540000000000       -3.8425000000000001E-002
 C   -8.4634670358594164       -2.4206864688245133        5.6568540000000000       -3.2570000000000002E-002
 C   -8.4633797801477435        2.4209922845785061        5.6568540000000000       -3.2570000000000002E-002
 C   -2.7380753020016733       -2.4207898145587095        5.6568540000000000       -3.2570000000000002E-002
 C   -2.7379877681594391        2.4208889388362902        5.6568540000000000       -3.2570000000000002E-002
 C   -9.1592943744866453        1.2108500081923830        5.6568540000000000        1.9990000000000001E-002
 C   -9.1593379934927306       -1.2105191272419304        5.6568540000000000        1.9990000000000001E-002
 C   -2.0421606564835626       -1.2106475956080267        5.6568540000000000        1.9990000000000001E-002
 C   -2.0421168617100069        1.2107215398216931        5.6568540000000000        1.9990000000000001E-002
 C  -0.63347349974877432       -1.1654089427259677        5.6568540000000000       0.22694000000000000     
 C  -0.63343132043423189        1.1654318781854012        5.6568540000000000       0.22694000000000000     
 C   -10.568023516071186       -1.1652296189244176        5.6568540000000000       0.22694000000000000     
 C   -10.567981549925758        1.1656112019910818        5.6568540000000000       0.22694000000000000     
 O    0.0000000000000000        0.0000000000000000        5.6568540000000000      -0.12278000000000000     
 O   -11.201454943091044        2.0219219130979127E-004   5.6568540000000000      -0.12278000000000000     
 O    2.1845848445182448E-002   2.1931895422115666        5.6568540000000000      -0.27689000000000002     
 O    2.1766451483881788E-002  -2.1931903397856232        5.6568540000000000      -0.27689000000000002     
 O   -11.223221615422535        2.1933925220729042        5.6568540000000000      -0.27689000000000002     
 O   -11.223300570688860       -2.1929873599324381        5.6568540000000000      -0.27689000000000002     
 H   -8.9960411622770238       -3.3658577033196622        5.6568540000000000        8.6370000000000002E-002
 H   -8.9959198628985853        3.3661827018418569        5.6568540000000000        8.6370000000000002E-002
 H   -2.2055352978510516       -3.3659802746575807        5.6568540000000000        8.6370000000000002E-002
 H   -2.2054135631365459        3.3660601304891133        5.6568540000000000        8.6370000000000002E-002
 H   -6.6292031072516115       -3.4170514485060792        5.6568540000000000        5.6320000000000002E-002
 H   -6.6290798305169067        3.4172911456379640        5.6568540000000000        5.6320000000000002E-002
 H   -4.5723751993131501       -3.4170885748065238        5.6568540000000000        5.6320000000000002E-002
 H   -4.5722517490823975        3.4172540193353300        5.6568540000000000        5.6320000000000002E-002
