38
lvs   20.000    0.000    0.000       0.000   20.000    0.000       0.000    0.000   20.000 #comment 
C      2.8965220000      0.0145750000      0.0000000000       0.000000
C     -3.6255340000     -1.2419350000      0.0000000000       0.000000
C      1.4376340000      0.0091640000      0.0000000000       0.000000
C     -2.8957300000     -0.0149120000      0.0000000000       0.000000
C      0.7292810000     -1.2498620000      0.0000000000       0.000000
C     -0.7277550000     -1.2616190000      0.0000000000       0.000000
C     -1.4369570000     -0.0098740000      0.0000000000       0.000000
C      3.6266740000      1.2426700000      0.0000000000       0.000000
C      0.7285030000      1.2608110000      0.0000000000       0.000000
C     -5.0924250000     -1.2280400000      0.0000000000       0.000000
C     -0.7281180000      1.2490650000      0.0000000000       0.000000
C     -5.0576230000      1.2415370000      0.0000000000       0.000000
C     -2.9019060000     -2.4766060000      0.0000000000       0.000000
C      3.6012210000     -1.2261690000      0.0000000000       0.000000
C      1.4870210000     -2.4707490000      0.0000000000       0.000000
C      2.9015810000      2.4777080000      0.0000000000       0.000000
C      5.0925900000      1.2304860000      0.0000000000       0.000000
C     -1.4929980000     -2.4851080000      0.0000000000       0.000000
C      5.0561870000     -1.2421650000      0.0000000000       0.000000
C      1.4930620000      2.4854320000      0.0000000000       0.000000
C     -3.6017020000      1.2259970000      0.0000000000       0.000000
C      2.8931340000     -2.4600120000      0.0000000000       0.000000
C     -1.4856040000      2.4699180000      0.0000000000       0.000000
C     -2.8932360000      2.4587170000      0.0000000000       0.000000
O     -5.7323200000      0.0261090000      0.0000000000      -0.200000
O      5.7341400000     -0.0255810000      0.0000000000      -0.200000
O     -5.7675390000      2.2599920000      0.0000000000      -0.200000
O     -5.8568520000     -2.1974550000      0.0000000000      -0.200000
O      5.7667690000     -2.2603500000      0.0000000000      -0.200000
O      5.8531570000      2.1982030000      0.0000000000      -0.200000
H      0.9669730000     -3.4399280000      0.0000000000       0.150000
H     -3.4659270000     -3.4253290000      0.0000000000       0.150000
H     -0.9696860000     -3.4546980000      0.0000000000       0.150000
H      0.9690670000      3.4544760000      0.0000000000       0.150000
H      3.4650220000      3.4266810000      0.0000000000       0.150000
H      3.4811460000     -3.3976590000      0.0000000000       0.150000
H     -0.9668450000      3.4397430000      0.0000000000       0.150000
H     -3.4809250000      3.3967670000      0.0000000000       0.150000
