          38
 lvs    232.00000000000000        0.0000000000000000        0.0000000000000000        0.0000000000000000        232.00000000000000        0.0000000000000000        0.0000000000000000        0.0000000000000000        232.00000000000000     
 C     113.13143506401190        115.96902368585060        108.64235687017332       -5.6899999999999997E-003
 C     118.85240707033221        116.01414847189550        108.68177623026109       -5.6899999999999997E-003
 C     117.40634631508536        115.99179643393336        108.66085532116840        1.2380000000000000E-002
 C     114.59758181863768        116.01146172262449        108.68336377968865        1.2380000000000000E-002
 C     116.66294694534166        114.71159662773617        108.61872577757246        1.6310000000000002E-002
 C     115.25890345719684        114.73236907504130        108.64093046632941        1.6310000000000002E-002
 C     115.25745839966933        117.20813874002950        108.64197053464177        1.6310000000000002E-002
 C     116.69754384689615        117.22340825205713        108.65580780547459        1.6310000000000002E-002
 C     114.54802820090480        113.57871752132255        108.68712528014741       -3.8425000000000001E-002
 C     117.46945084710453        113.56029876825923        108.66575136437318       -3.8425000000000001E-002
 C     114.53031339149803        118.43879549261814        108.67430384072512       -3.8425000000000001E-002
 C     117.41085585592937        118.37949655945306        108.61204974527416       -3.8425000000000001E-002
 C     113.10732262942656        113.54245595708841        108.63686536919082       -3.2570000000000002E-002
 C     113.13899303032321        118.42109898448385        108.67339822220954       -3.2570000000000002E-002
 C     118.80555138644868        113.52277545385273        108.61143716028064       -3.2570000000000002E-002
 C     118.82762055932726        118.39181725841144        108.63836878783098       -3.2570000000000002E-002
 C     112.42749993326844        117.19502403876939        108.65755809512945        1.9990000000000001E-002
 C     112.38658358084749        114.72863433717134        108.61420852210790        1.9990000000000001E-002
 C     119.56524372726577        114.79704964284559        108.67547653057352        1.9990000000000001E-002
 C     119.59199710356127        117.24927637149258        108.70466312853301        1.9990000000000001E-002
 C     120.98503399895779        114.85433406215611        108.68675297633372       0.22694000000000000     
 C     120.93898786448212        117.14448473180717        108.64305050223138       0.22694000000000000     
 C     111.01719571245226        114.81102886878374        108.65342403929117       0.22694000000000000     
 C     110.98864975845933        117.11867971758760        108.62722174531395       0.22694000000000000     
 O     121.55469309474134        115.95996371211955        108.62482063400184      -0.12278000000000000     
 O     110.41960646436023        116.01366586855306        108.68976988988862      -0.12278000000000000     
 O     121.64927182918559        118.22599792428791        108.69692978336155      -0.27689000000000002     
 O     121.64386204185215        113.82838132484673        108.68711375515200      -0.27689000000000002     
 O     110.37943187524166        118.19424261181051        108.67647112451419      -0.27689000000000002     
 O     110.34808525655576        113.77068918302500        108.64071826629527      -0.27689000000000002     
 H     112.60034962531418        112.61593760316484        108.65733680307153        8.6370000000000002E-002
 H     112.56095616867070        119.31833598928065        108.62470666807141        8.6370000000000002E-002
 H     119.41225601200146        112.65420621368089        108.68879647904959        8.6370000000000002E-002
 H     119.35674222971370        119.34048428296028        108.64004602257130        8.6370000000000002E-002
 H     114.93086247777835        112.53753646879103        108.62542990491146        5.6320000000000002E-002
 H     114.95354469820026        119.39984173565911        108.65497358951828        5.6320000000000002E-002
 H     116.98653036717313        112.53956335289089        108.62539244315160        5.6320000000000002E-002
 H     116.99292747867045        119.38558351172401        108.63865102113944        5.6320000000000002E-002
