          38
 lvs    232.00000000000000        0.0000000000000000        0.0000000000000000        0.0000000000000000        232.00000000000000        0.0000000000000000        0.0000000000000000        0.0000000000000000        232.00000000000000     
 C     113.14593219383858        115.28352081567728        108.65685400000000       -5.6899999999999997E-003
 C     118.82748484007111        115.28922624163440        108.65685400000000       -5.6899999999999997E-003
 C     117.40234499391696        115.28779511276495        108.65685400000000        1.2380000000000000E-002
 C     114.57107203894903        115.28495194293583        108.65685400000000        1.2380000000000000E-002
 C     116.70107516776919        114.04972485016370        108.65685400000000        1.6310000000000002E-002
 C     115.27482699086742        114.04829260871189        108.65685400000000        1.6310000000000002E-002
 C     115.27234186502756        116.52302220538772        108.65685400000000        1.6310000000000002E-002
 C     116.69859004142155        116.52445444658252        108.65685400000000        1.6310000000000002E-002
 C     114.51775692075738        112.84844624117513        108.65685400000000       -3.8425000000000001E-002
 C     117.46055348273134        112.85140140388604        108.65685400000000       -3.8425000000000001E-002
 C     114.51286355077291        117.72134565189302        108.65685400000000       -3.8425000000000001E-002
 C     117.45566011065520        117.72430081417889        108.65685400000000       -3.8425000000000001E-002
 C     113.12731126023574        112.86244458789758        108.65685400000000       -3.2570000000000002E-002
 C     113.12244880811366        117.70455476227430        108.65685400000000       -3.2570000000000002E-002
 C     118.85096822616804        112.86819229357208        108.65685400000000       -3.2570000000000002E-002
 C     118.84610577149627        117.71030247058044        108.65685400000000       -3.2570000000000002E-002
 C     112.42679583813899        116.49431994363994        108.65685400000000        1.9990000000000001E-002
 C     112.42922905873958        114.07127981506343        108.65685400000000        1.9990000000000001E-002
 C     119.54662119669224        114.07842711227207        108.65685400000000        1.9990000000000001E-002
 C     119.54418797502825        116.50146724295956        108.65685400000000        1.9990000000000001E-002
 C     120.95513502262406        114.12443508582238        108.65685400000000       0.22694000000000000     
 C     120.95279136225074        116.45828822957579        108.65685400000000       0.22694000000000000     
 C     111.02062567316109        114.11445882949256        108.65685400000000       0.22694000000000000     
 C     111.01828201314538        116.44831197227364        108.65685400000000       0.22694000000000000     
 O     121.58672646073950        115.29199707811770        108.65685400000000      -0.12278000000000000     
 O     110.38669057447160        115.28074997866443        108.65685400000000      -0.12278000000000000     
 O     121.60919604582404        117.48592214092635        108.65685400000000      -0.27689000000000002     
 O     121.61360228670014        113.09812156969473        108.65685400000000      -0.27689000000000002     
 O     110.35981475072747        117.47462548729631        108.65685400000000      -0.27689000000000002     
 O     110.36422099026049        113.08682491672973        108.65685400000000      -0.27689000000000002     
 H     112.59986682224265        111.91545480009330        108.65685400000000        8.6370000000000002E-002
 H     112.59310350059928        118.65048332120924        108.65685400000000        8.6370000000000002E-002
 H     119.38031353295187        111.92226373463130        108.65685400000000        8.6370000000000002E-002
 H     119.37355020714240        118.65729226038897        108.65685400000000        8.6370000000000002E-002
 H     114.96228657286689        111.86896056387957        108.65685400000000        5.6320000000000002E-002
 H     114.95542510868198        118.70172214614082        108.65685400000000        5.6320000000000002E-002
 H     117.01799192402153        111.87102490973929        108.65685400000000        5.6320000000000002E-002
 H     117.01113045753101        118.70378649058456        108.65685400000000        5.6320000000000002E-002
