          38
 lvs    232.00000000000000        0.0000000000000000        0.0000000000000000        0.0000000000000000        232.00000000000000        0.0000000000000000        0.0000000000000000        0.0000000000000000        232.00000000000000     
 C     113.15783397214074        115.99542259397944        108.66875577830216       -5.6899999999999997E-003
 C     118.78934975752900        115.95109115909229        108.61871891745788       -5.6899999999999997E-003
 C     117.39304254537289        115.97849266422089        108.64755155145593        1.2380000000000000E-002
 C     114.54118521749119        115.95506512147800        108.62696717854216        1.2380000000000000E-002
 C     116.72725956913128        114.77590925152579        108.68303840136208        1.6310000000000002E-002
 C     115.27759774685175        114.75106336469622        108.65962475598432        1.6310000000000002E-002
 C     115.26458408957551        117.21526442993567        108.64909622454795        1.6310000000000002E-002
 C     116.68354535600980        117.20940976117078        108.64180931458824        1.6310000000000002E-002
 C     114.49045075223844        113.52114007265619        108.62954783148106       -3.8425000000000001E-002
 C     117.42826145261252        113.51910937376722        108.62456196988117       -3.8425000000000001E-002
 C     114.49827909426563        118.40676119538574        108.64226954349272       -3.8425000000000001E-002
 C     117.44729443339426        118.41593513691795        108.64848832273906       -3.8425000000000001E-002
 C     113.11283733235928        113.54797066002112        108.64238007212353       -3.2570000000000002E-002
 C     113.13944950427225        118.42155545843289        108.67385469615859       -3.2570000000000002E-002
 C     118.89467412644925        113.61189819385329        108.70055990028121       -3.2570000000000002E-002
 C     118.85987787151608        118.42407457060025        108.67062610001980       -3.2570000000000002E-002
 C     112.40039622267487        117.16792032817582        108.63045438453588        1.9990000000000001E-002
 C     112.45921053187563        114.80126128819948        108.68683547313604        1.9990000000000001E-002
 C     119.57695937885543        114.80876529443526        108.68719218216319        1.9990000000000001E-002
 C     119.55417887886743        117.21145814679875        108.66684490383918        1.9990000000000001E-002
 C     120.97786743678090        114.84716749997922        108.67958641415683       0.22694000000000000     
 C     120.98378051854036        117.18927738586541        108.68784315628962       0.22694000000000000     
 C     111.05967168744147        114.85350484377294        108.69590001428037       0.22694000000000000     
 C     111.04330507869321        117.17333503782147        108.68187706554782       0.22694000000000000     
 O     121.57869362451190        115.98396424189011        108.64882116377240      -0.12278000000000000     
 O     110.35331666722264        115.94737607141548        108.62348009275104      -0.12278000000000000     
 O     121.61005734280936        118.18678343791167        108.65771529698532      -0.27689000000000002     
 O     121.62490394635519        113.80942322934978        108.66815565965504      -0.27689000000000002     
 O     110.35329816493136        118.16810890150020        108.65033741420389      -0.27689000000000002     
 O     110.39762788419027        113.82023181065951        108.69026089392977      -0.27689000000000002     
 H     112.55375635679671        112.56934433464737        108.61074353455406        8.6370000000000002E-002
 H     112.55566935499898        119.31304917560894        108.61941985439969        8.6370000000000002E-002
 H     119.41409159231327        112.65604179399270        108.69063205936139        8.6370000000000002E-002
 H     119.36949065410920        119.35323270735577        108.65279444696679        8.6370000000000002E-002
 H     114.93976814557590        112.54644213658858        108.63433557270901        5.6320000000000002E-002
 H     114.99561980115051        119.44191683860936        108.69704869246853        5.6320000000000002E-002
 H     116.99065337292855        112.54368635864631        108.62951544890701        5.6320000000000002E-002
 H     116.96410178759845        119.35675782065201        108.60982533006744        5.6320000000000002E-002
