          38
 lvs    232.00000000000000        0.0000000000000000        0.0000000000000000        0.0000000000000000        232.00000000000000        0.0000000000000000        0.0000000000000000        0.0000000000000000        232.00000000000000     
 C     113.14242636346505        115.98001498530375        108.65334816962647       -5.6899999999999997E-003
 C     118.83969914040398        116.00144054196727        108.66906830033287       -5.6899999999999997E-003
 C     117.37335604737069        115.95880616621869        108.62786505345373        1.2380000000000000E-002
 C     114.53199388189853        115.94587378588534        108.61777584294950        1.2380000000000000E-002
 C     116.73688034761560        114.78553003001011        108.69265917984640        1.6310000000000002E-002
 C     115.29323051835027        114.76669613619474        108.67525752748284        1.6310000000000002E-002
 C     115.23055430007960        117.18123464043977        108.61506643505204        1.6310000000000002E-002
 C     116.71688122023038        117.24274562539135        108.67514517880882        1.6310000000000002E-002
 C     114.52460035892422        113.55528967934197        108.66369743816684       -3.8425000000000001E-002
 C     117.42362797493172        113.51447589608642        108.61992849220037       -3.8425000000000001E-002
 C     114.55346357877922        118.46194567989933        108.69745402800631       -3.8425000000000001E-002
 C     117.48246515900854        118.45110586253223        108.68365904835333       -3.8425000000000001E-002
 C     113.08522693613234        113.52036026379419        108.61476967589660       -3.2570000000000002E-002
 C     113.15556697236831        118.43767292652895        108.68997216425464       -3.2570000000000002E-002
 C     118.88616661654186        113.60339068394590        108.69205239037382       -3.2570000000000002E-002
 C     118.82049349171793        118.38469019080210        108.63124172022165       -3.2570000000000002E-002
 C     112.42422634424221        117.19175044974318        108.65428450610324        1.9990000000000001E-002
 C     112.47020879971157        114.81225955603543        108.69783374097199        1.9990000000000001E-002
 C     119.54801163190572        114.77981754748555        108.65824443521348        1.9990000000000001E-002
 C     119.57875252917287        117.23603179710419        108.69141855414462        1.9990000000000001E-002
 C     120.99960726043315        114.86890732363148        108.70132623780908       0.22694000000000000     
 C     120.99204836459454        117.19754523191959        108.69611100234380       0.22694000000000000     
 C     111.06883347372671        114.86266663005819        108.70506180056562       0.22694000000000000     
 C     111.01899871018993        117.14902866931820        108.65757069704455       0.22694000000000000     
 O     121.55544836625788        115.96071898363608        108.62557590551837      -0.12278000000000000     
 O     110.35613905777565        115.95019846196848        108.62630248330404      -0.12278000000000000     
 O     121.63772967470106        118.21445576980338        108.68538762887702      -0.27689000000000002     
 O     121.63390005581812        113.81841933881270        108.67715176911797      -0.27689000000000002     
 O     110.31298429450224        118.12779503107109        108.61002354377477      -0.27689000000000002     
 O     110.32267778572202        113.74528171219126        108.61531079546153      -0.27689000000000002     
 H     112.63019610625173        112.64578408410239        108.68718328400908        8.6370000000000002E-002
 H     112.63168246163893        119.38906228224889        108.69543296103964        8.6370000000000002E-002
 H     119.34766712024123        112.58961732192066        108.62420758728935        8.6370000000000002E-002
 H     119.32831404461271        119.31205609785928        108.61161783747031        8.6370000000000002E-002
 H     114.99470526868306        112.60137925969575        108.68927269581617        5.6320000000000002E-002
 H     114.94221630998229        119.38851334744113        108.64364520130030        5.6320000000000002E-002
 H     117.03033087664107        112.58336386235884        108.66919295261954        5.6320000000000002E-002
 H     117.04935593262579        119.44201196567934        108.69507947509477        5.6320000000000002E-002
