          38
 lvs    232.00000000000000        0.0000000000000000        0.0000000000000000        0.0000000000000000        232.00000000000000        0.0000000000000000        0.0000000000000000        0.0000000000000000        232.00000000000000     
 C     113.13205638348444        115.96964500532314        108.64297818964586       -5.6899999999999997E-003
 C     118.78689382625281        115.94863522781610        108.61626298618170       -5.6899999999999997E-003
 C     117.43050893898354        116.01595905783154        108.68501794506656        1.2380000000000000E-002
 C     114.57724066694750        115.99112057093431        108.66302262799847        1.2380000000000000E-002
 C     116.71981545245364        114.76846513484816        108.67559428468445        1.6310000000000002E-002
 C     115.23434897478627        114.70781459263074        108.61637598391884        1.6310000000000002E-002
 C     115.24592943096580        117.19660977132597        108.63044156593824        1.6310000000000002E-002
 C     116.72694978009245        117.25281418525343        108.68521373867090        1.6310000000000002E-002
 C     114.54983014659655        113.58051946701430        108.68892722583917       -3.8425000000000001E-002
 C     117.48155431015296        113.57240223130766        108.67785482742161       -3.8425000000000001E-002
 C     114.49936101305539        118.40784311417551        108.64335146228248       -3.8425000000000001E-002
 C     117.41075490704488        118.37939561056857        108.61194879638967       -3.8425000000000001E-002
 C     113.16537098447823        113.60050431214007        108.69491372424248       -3.2570000000000002E-002
 C     113.09690297806536        118.37900893222600        108.63130816995169       -3.2570000000000002E-002
 C     118.84401040035748        113.56123446776152        108.64989617418944       -3.2570000000000002E-002
 C     118.81303487893358        118.37723157801776        108.62378310743730       -3.2570000000000002E-002
 C     112.43020788055975        117.19773198606070        108.66026604242076        1.9990000000000001E-002
 C     112.45818128184726        114.80023203817112        108.68580622310768        1.9990000000000001E-002
 C     119.54964312960071        114.78144904518054        108.65987593290846        1.9990000000000001E-002
 C     119.51864461171810        117.17592387964942        108.63131063668985        1.9990000000000001E-002
 C     120.92175696597890        114.79105702917722        108.62347594335483       0.22694000000000000     
 C     120.98749656633136        117.19299343365641        108.69155920408062       0.22694000000000000     
 C     111.04637045638134        114.84020361271281        108.68259878322024       0.22694000000000000     
 C     111.01209988371630        117.14212984284457        108.65067187057092       0.22694000000000000     
 O     121.56879995103127        115.97407056840947        108.63892749029176      -0.12278000000000000     
 O     110.40499627939498        115.99905568358781        108.67515970492337      -0.12278000000000000     
 O     121.58625458551360        118.16298068061592        108.63391253968956      -0.27689000000000002     
 O     121.63528014704842        113.81979943004301        108.67853186034827      -0.27689000000000002     
 O     110.34900291765936        118.16381365422821        108.64604216693189      -0.27689000000000002     
 O     110.32770488808931        113.75030881455855        108.62033789782882      -0.27689000000000002     
 H     112.62856673099624        112.64415470884690        108.68555390875359        8.6370000000000002E-002
 H     112.58775345764222        119.34513327825218        108.65150395704293        8.6370000000000002E-002
 H     119.42568625799075        112.66763645967018        108.70222672503887        8.6370000000000002E-002
 H     119.36713045645217        119.35087250969875        108.65043424930977        8.6370000000000002E-002
 H     114.97793943041472        112.58461342142741        108.67250685754783        5.6320000000000002E-002
 H     114.90742534155947        119.35372237901832        108.60885423287749        5.6320000000000002E-002
 H     117.00562709247876        112.55866007819652        108.64448916845723        5.6320000000000002E-002
 H     116.96217192078022        119.35482795383378        108.60789546324921        5.6320000000000002E-002
