          38
 lvs    232.00000000000000        0.0000000000000000        0.0000000000000000        0.0000000000000000        232.00000000000000        0.0000000000000000        0.0000000000000000        0.0000000000000000        232.00000000000000     
 C     113.14791796044138        115.98550658228008        108.65883976660280       -5.6899999999999997E-003
 C     118.83908316776117        116.00082456932446        108.66845232769006       -5.6899999999999997E-003
 C     117.39232844429912        115.97777856314713        108.64683745038217        1.2380000000000000E-002
 C     114.53904781134321        115.95292771533002        108.62482977239418        1.2380000000000000E-002
 C     116.71349970676550        114.76214938916002        108.66927853899631        1.6310000000000002E-002
 C     115.24504117813881        114.71850679598327        108.62706818727138        1.6310000000000002E-002
 C     115.28777363762200        117.23845397798216        108.67228577259444        1.6310000000000002E-002
 C     116.73917278641524        117.26503719157621        108.69743674499368        1.6310000000000002E-002
 C     114.52758413493824        113.55827345535599        108.66668121418085       -3.8425000000000001E-002
 C     117.44073747871953        113.53158539987423        108.63703799598818       -3.8425000000000001E-002
 C     114.47721897437521        118.38570107549532        108.62120942360229       -3.8425000000000001E-002
 C     117.45778600380075        118.42642670732444        108.65897989314554       -3.8425000000000001E-002
 C     113.13121995083362        113.56635327849547        108.66076269059788       -3.2570000000000002E-002
 C     113.09626814549830        118.37837409965894        108.63067333738464       -3.2570000000000002E-002
 C     118.80401092223757        113.52123498964161        108.60989669606953       -3.2570000000000002E-002
 C     118.82691233935803        118.39110903844221        108.63766056786176       -3.2570000000000002E-002
 C     112.45691589562730        117.22444000112826        108.68697405748831        1.9990000000000001E-002
 C     112.45047977912702        114.79253053545088        108.67810472038744        1.9990000000000001E-002
 C     119.57692273267463        114.80872864825446        108.68715553598238        1.9990000000000001E-002
 C     119.58327442255138        117.24055369048270        108.69594044752313        1.9990000000000001E-002
 C     120.95921940271587        114.82851946591420        108.66093838009181       0.22694000000000000     
 C     120.96578084555036        117.17127771287541        108.66984348329962       0.22694000000000000     
 C     111.03199902963028        114.82583218596176        108.66822735646919       0.22694000000000000     
 C     111.03041010696654        117.16044006609481        108.66898209382116       0.22694000000000000     
 O     121.53721758070044        115.94248819807865        108.60734511996094      -0.12278000000000000     
 O     110.40598405571322        116.00004345990605        108.67614748124161      -0.12278000000000000     
 O     121.58769591963591        118.16442201473822        108.63535387381187      -0.27689000000000002     
 O     121.60816231413182        113.79268159712640        108.65141402743167      -0.27689000000000002     
 O     110.38074776507550        118.19555850164434        108.67778701434803      -0.27689000000000002     
 O     110.33420130471715        113.75680523118639        108.62683431445666      -0.27689000000000002     
 H     112.63897456812690        112.65456254597756        108.69596174588425        8.6370000000000002E-002
 H     112.60801303532320        119.36539285593315        108.67176353472391        8.6370000000000002E-002
 H     119.34554620137808        112.58749640305751        108.62208666842621        8.6370000000000002E-002
 H     119.34827088701797        119.33201294026455        108.63157467987557        8.6370000000000002E-002
 H     114.92162506429995        112.52829905531263        108.61619249143305        5.6320000000000002E-002
 H     114.97471030312755        119.42100734058640        108.67613919444557        5.6320000000000002E-002
 H     116.99867421676916        112.55170720248692        108.63753629274763        5.6320000000000002E-002
 H     117.03600071201328        119.42865674506683        108.68172425448226        5.6320000000000002E-002
