          38
 lvs    232.00000000000000        0.0000000000000000        0.0000000000000000        0.0000000000000000        232.00000000000000        0.0000000000000000        0.0000000000000000        0.0000000000000000        232.00000000000000     
 C     113.17943213516038        116.01702075699909        108.69035394132180       -5.6899999999999997E-003
 C     118.86505644232905        116.02679784389234        108.69442560225794       -5.6899999999999997E-003
 C     117.37860210803889        115.96405222688689        108.63311111412193        1.2380000000000000E-002
 C     114.59151430093668        116.00539420492349        108.67729626198765        1.2380000000000000E-002
 C     116.74310216469910        114.79175184709361        108.69888099692990        1.6310000000000002E-002
 C     115.31221691811312        114.78568253595759        108.69424392724569        1.6310000000000002E-002
 C     115.29840398424675        117.24908432460691        108.68291611921919        1.6310000000000002E-002
 C     116.68705661792657        117.21292102308755        108.64532057650501        1.6310000000000002E-002
 C     114.49844307191006        113.52913239232781        108.63754015115268       -3.8425000000000001E-002
 C     117.43156451535411        113.52241243650882        108.62786503262276       -3.8425000000000001E-002
 C     114.52363493946234        118.43211704058245        108.66762538868943       -3.8425000000000001E-002
 C     117.50222576049696        118.47086646402065        108.70341964984175       -3.8425000000000001E-002
 C     113.15947261582639        113.59460594348823        108.68901535559064       -3.2570000000000002E-002
 C     113.13711371379912        118.41921966795977        108.67151890568546       -3.2570000000000002E-002
 C     118.85577302823869        113.57299709564273        108.66165880207065       -3.2570000000000002E-002
 C     118.83954773130401        118.40374443038819        108.65029595980774       -3.2570000000000002E-002
 C     112.39585694090178        117.16338104640273        108.62591510276279        1.9990000000000001E-002
 C     112.44661464106562        114.78866539738948        108.67423958232604        1.9990000000000001E-002
 C     119.55974045877232        114.79154637435215        108.66997326208008        1.9990000000000001E-002
 C     119.55236641765694        117.20964568558826        108.66503244262869        1.9990000000000001E-002
 C     120.91208756055696        114.78138762375528        108.61380653793289       0.22694000000000000     
 C     120.94826037936338        117.15375724668843        108.65232301711264       0.22694000000000000     
 C     110.98809980585629        114.78193296218777        108.62432813269520       0.22694000000000000     
 C     110.99787867525757        117.12790863438583        108.63645066211218       0.22694000000000000     
 O     121.59020546088797        115.99547607826618        108.66033300014847      -0.12278000000000000     
 O     110.41096668742478        116.00502609161761        108.68113011295317      -0.12278000000000000     
 O     121.59658428082928        118.17331037593159        108.64424223500524      -0.27689000000000002     
 O     121.58004178238178        113.76456106537637        108.62329349568164      -0.27689000000000002     
 O     110.38495891179758        118.19976964836643        108.68199816107011      -0.27689000000000002     
 O     110.36989193541920        113.79249586188844        108.66252494515871      -0.27689000000000002     
 H     112.59985621206198        112.61544418991264        108.65684338981933        8.6370000000000002E-002
 H     112.62142959488288        119.37880941549284        108.68518009428360        8.6370000000000002E-002
 H     119.40247272469934        112.64442292637877        108.67901319174746        8.6370000000000002E-002
 H     119.40459000245934        119.38833205570592        108.68789379531694        8.6370000000000002E-002
 H     114.94465229567852        112.55132628669121        108.63921972281163        5.6320000000000002E-002
 H     114.99147295772893        119.43776999518778        108.69290184904695        5.6320000000000002E-002
 H     117.06736024095633        112.62039322667410        108.70622231693480        5.6320000000000002E-002
 H     117.04142214327861        119.43407817633216        108.68714568574759        5.6320000000000002E-002
