          38
 lvs    232.00000000000000        0.0000000000000000        0.0000000000000000        0.0000000000000000        232.00000000000000        0.0000000000000000        0.0000000000000000        0.0000000000000000        232.00000000000000     
 C     113.14491822508744        115.98250684692614        108.65584003124886       -5.6899999999999997E-003
 C     118.86897530158197        116.03071670314526        108.69834446151086       -5.6899999999999997E-003
 C     117.37590737294516        115.96135749179317        108.63041637902820        1.2380000000000000E-002
 C     114.60808659533497        116.02196649932178        108.69386855638594        1.2380000000000000E-002
 C     116.73668472034463        114.78533440273914        108.69246355257543        1.6310000000000002E-002
 C     115.23479623812025        114.70826185596472        108.61682324725282        1.6310000000000002E-002
 C     115.28165654916729        117.23233688952746        108.66616868413973        1.6310000000000002E-002
 C     116.65571617497686        117.18158058013783        108.61398013355530        1.6310000000000002E-002
 C     114.47074291115723        113.50143223157498        108.60983999039985       -3.8425000000000001E-002
 C     117.45325799290059        113.54410591405529        108.64955851016924       -3.8425000000000001E-002
 C     114.55201483327578        118.46049693439589        108.69600528250287       -3.8425000000000001E-002
 C     117.47462326991057        118.44326397343426        108.67581715925536       -3.8425000000000001E-002
 C     113.12342991969258        113.55856324735443        108.65297265945684       -3.2570000000000002E-002
 C     113.07628196972868        118.35838792388932        108.61068716161502       -3.2570000000000002E-002
 C     118.80295314371205        113.52017721111609        108.60883891754401       -3.2570000000000002E-002
 C     118.82325896318484        118.38745566226902        108.63400719168857       -3.2570000000000002E-002
 C     112.40497383384701        117.17249793934796        108.63503199570802        1.9990000000000001E-002
 C     112.42782777492286        114.76987853124672        108.65545271618328        1.9990000000000001E-002
 C     119.59070696023019        114.82251287581002        108.70093976353795        1.9990000000000001E-002
 C     119.57630184562271        117.23358111355402        108.68896787059445        1.9990000000000001E-002
 C     120.94786161197155        114.81716167516987        108.64958058934748       0.22694000000000000     
 C     120.92945862994470        117.13495549726976        108.63352126769396       0.22694000000000000     
 C     111.01936179401980        114.81319495035127        108.65559012085870       0.22694000000000000     
 C     110.96843582688626        117.09846578601453        108.60700781374088       0.22694000000000000     
 O     121.61584482793774        116.02111544531594        108.68597236719823      -0.12278000000000000     
 O     110.38512862658574        115.97918803077857        108.65529205211413      -0.12278000000000000     
 O     121.56726934212804        118.14399543723036        108.61492729630400      -0.27689000000000002     
 O     121.65512181181226        113.83964109480685        108.69837352511212      -0.27689000000000002     
 O     110.31357638527065        118.12838712183949        108.61061563454318      -0.27689000000000002     
 O     110.32272563565397        113.74532956212320        108.61535864539347      -0.27689000000000002     
 H     112.62252485842345        112.63811283627410        108.67951203618080        8.6370000000000002E-002
 H     112.55084303513860        119.30822285574855        108.61459353453931        8.6370000000000002E-002
 H     119.37021709935379        112.61216730103322        108.64675756640192        8.6370000000000002E-002
 H     119.39949776958791        119.38323982283448        108.68280156244550        8.6370000000000002E-002
 H     114.94139482066656        112.54806881167924        108.63596224779967        5.6320000000000002E-002
 H     114.94997755470239        119.39627459216123        108.65140644602040        5.6320000000000002E-002
 H     116.99525425696741        112.54828724268518        108.63411633294588        5.6320000000000002E-002
 H     117.04202358315591        119.43467961620946        108.68774712562490        5.6320000000000002E-002
