          38
 lvs    232.00000000000000        0.0000000000000000        0.0000000000000000        0.0000000000000000        232.00000000000000        0.0000000000000000        0.0000000000000000        0.0000000000000000        232.00000000000000     
 C     113.12957238897111        115.96716101080982        108.64049419513253       -5.6899999999999997E-003
 C     118.84769201845823        116.00943342002152        108.67706117838712       -5.6899999999999997E-003
 C     117.42175348889954        116.00720360774754        108.67626249498258        1.2380000000000000E-002
 C     114.54799696336202        115.96187686734883        108.63377892441299        1.2380000000000000E-002
 C     116.69469576942224        114.74334545181675        108.65047460165304        1.6310000000000002E-002
 C     115.24209518231410        114.71556080015857        108.62412219144667        1.6310000000000002E-002
 C     115.24736140533410        117.19804174569427        108.63187354030654        1.6310000000000002E-002
 C     116.70228851947675        117.22815292463773        108.66055247805519        1.6310000000000002E-002
 C     114.48430156799840        113.51499088841615        108.62339864724102       -3.8425000000000001E-002
 C     117.42065721972089        113.51150514087560        108.61695773698955       -3.8425000000000001E-002
 C     114.56007064577541        118.46855274689553        108.70406109500250       -3.8425000000000001E-002
 C     117.49819415279953        118.46683485632322        108.69938804214432       -3.8425000000000001E-002
 C     113.17023220685354        113.60536553451539        108.69977494661779       -3.2570000000000002E-002
 C     113.09292968335221        118.37503563751285        108.62733487523855       -3.2570000000000002E-002
 C     118.84513047833904        113.56235454574309        108.65101625217100       -3.2570000000000002E-002
 C     118.89250128542191        118.45669798450609        108.70324951392564       -3.2570000000000002E-002
 C     112.46172601596965        117.22925012147060        108.69178417783066        1.9990000000000001E-002
 C     112.40191692560634        114.74396768193020        108.62954186686676        1.9990000000000001E-002
 C     119.52453117087892        114.75633708645874        108.63476397418667        1.9990000000000001E-002
 C     119.51879746178882        117.17607672972014        108.63146348676057        1.9990000000000001E-002
 C     120.95709110995233        114.82639117315065        108.65881008732826       0.22694000000000000     
 C     120.98218887044256        117.18768573776761        108.68625150819182       0.22694000000000000     
 C     111.05290580052799        114.84673895685947        108.68913412736690       0.22694000000000000     
 C     111.04956210205914        117.17959206118741        108.68813408891376       0.22694000000000000     
 O     121.60545261340049        116.01072323077869        108.67558015266098      -0.12278000000000000     
 O     110.41346154858917        116.00752095278200        108.68362497411756      -0.12278000000000000     
 O     121.57068179624216        118.14740789134447        108.61833975041812      -0.27689000000000002     
 O     121.60764020635413        113.79215948934872        108.65089191965399      -0.27689000000000002     
 O     110.39376071096405        118.20857144753289        108.69079996023657      -0.27689000000000002     
 O     110.31584307851136        113.73844700498060        108.60847608825087      -0.27689000000000002     
 H     112.56256352215021        112.57815150000087        108.61955069990756        8.6370000000000002E-002
 H     112.63957902526955        119.39695884587951        108.70332952467027        8.6370000000000002E-002
 H     119.42314824839585        112.66509845007528        108.69968871544397        8.6370000000000002E-002
 H     119.34971625920474        119.33345831245131        108.63302005206234        8.6370000000000002E-002
 H     114.99327093273112        112.59994492374381        108.68783835986423        5.6320000000000002E-002
 H     114.92194867890274        119.36824571636159        108.62337757022075        5.6320000000000002E-002
 H     117.06436336903282        112.61739635475058        108.70322544501128        5.6320000000000002E-002
 H     117.02156991204296        119.41422594509652        108.66729345451195        5.6320000000000002E-002
