          38
 lvs    232.00000000000000        0.0000000000000000        0.0000000000000000        0.0000000000000000        232.00000000000000        0.0000000000000000        0.0000000000000000        0.0000000000000000        232.00000000000000     
 C     113.14593219383858        114.98352081567728        108.65685400000000       -5.6899999999999997E-003
 C     118.82748484007111        114.98922624163440        108.65685400000000       -5.6899999999999997E-003
 C     117.40234499391696        114.98779511276496        108.65685400000000        1.2380000000000000E-002
 C     114.57107203894903        114.98495194293584        108.65685400000000        1.2380000000000000E-002
 C     116.70107516776919        113.74972485016370        108.65685400000000        1.6310000000000002E-002
 C     115.27482699086742        113.74829260871189        108.65685400000000        1.6310000000000002E-002
 C     115.27234186502756        116.22302220538772        108.65685400000000        1.6310000000000002E-002
 C     116.69859004142155        116.22445444658253        108.65685400000000        1.6310000000000002E-002
 C     114.51775692075738        112.54844624117513        108.65685400000000       -3.8425000000000001E-002
 C     117.46055348273134        112.55140140388605        108.65685400000000       -3.8425000000000001E-002
 C     114.51286355077291        117.42134565189302        108.65685400000000       -3.8425000000000001E-002
 C     117.45566011065520        117.42430081417889        108.65685400000000       -3.8425000000000001E-002
 C     113.12731126023574        112.56244458789759        108.65685400000000       -3.2570000000000002E-002
 C     113.12244880811366        117.40455476227430        108.65685400000000       -3.2570000000000002E-002
 C     118.85096822616804        112.56819229357208        108.65685400000000       -3.2570000000000002E-002
 C     118.84610577149627        117.41030247058045        108.65685400000000       -3.2570000000000002E-002
 C     112.42679583813899        116.19431994363994        108.65685400000000        1.9990000000000001E-002
 C     112.42922905873958        113.77127981506344        108.65685400000000        1.9990000000000001E-002
 C     119.54662119669224        113.77842711227207        108.65685400000000        1.9990000000000001E-002
 C     119.54418797502825        116.20146724295957        108.65685400000000        1.9990000000000001E-002
 C     120.95513502262406        113.82443508582239        108.65685400000000       0.22694000000000000     
 C     120.95279136225074        116.15828822957579        108.65685400000000       0.22694000000000000     
 C     111.02062567316109        113.81445882949257        108.65685400000000       0.22694000000000000     
 C     111.01828201314538        116.14831197227365        108.65685400000000       0.22694000000000000     
 O     121.58672646073950        114.99199707811771        108.65685400000000      -0.12278000000000000     
 O     110.38669057447160        114.98074997866443        108.65685400000000      -0.12278000000000000     
 O     121.60919604582404        117.18592214092635        108.65685400000000      -0.27689000000000002     
 O     121.61360228670014        112.79812156969473        108.65685400000000      -0.27689000000000002     
 O     110.35981475072747        117.17462548729631        108.65685400000000      -0.27689000000000002     
 O     110.36422099026049        112.78682491672973        108.65685400000000      -0.27689000000000002     
 H     112.59986682224265        111.61545480009330        108.65685400000000        8.6370000000000002E-002
 H     112.59310350059928        118.35048332120924        108.65685400000000        8.6370000000000002E-002
 H     119.38031353295187        111.62226373463130        108.65685400000000        8.6370000000000002E-002
 H     119.37355020714240        118.35729226038897        108.65685400000000        8.6370000000000002E-002
 H     114.96228657286689        111.56896056387957        108.65685400000000        5.6320000000000002E-002
 H     114.95542510868198        118.40172214614083        108.65685400000000        5.6320000000000002E-002
 H     117.01799192402153        111.57102490973929        108.65685400000000        5.6320000000000002E-002
 H     117.01113045753101        118.40378649058457        108.65685400000000        5.6320000000000002E-002
