          38
 lvs    232.00000000000000        0.0000000000000000        0.0000000000000000        0.0000000000000000        232.00000000000000        0.0000000000000000        0.0000000000000000        0.0000000000000000        232.00000000000000     
 C     113.14593219383858        115.18352081567728        108.65685400000000       -5.6899999999999997E-003
 C     118.82748484007111        115.18922624163440        108.65685400000000       -5.6899999999999997E-003
 C     117.40234499391696        115.18779511276496        108.65685400000000        1.2380000000000000E-002
 C     114.57107203894903        115.18495194293584        108.65685400000000        1.2380000000000000E-002
 C     116.70107516776919        113.94972485016370        108.65685400000000        1.6310000000000002E-002
 C     115.27482699086742        113.94829260871190        108.65685400000000        1.6310000000000002E-002
 C     115.27234186502756        116.42302220538772        108.65685400000000        1.6310000000000002E-002
 C     116.69859004142155        116.42445444658253        108.65685400000000        1.6310000000000002E-002
 C     114.51775692075738        112.74844624117513        108.65685400000000       -3.8425000000000001E-002
 C     117.46055348273134        112.75140140388605        108.65685400000000       -3.8425000000000001E-002
 C     114.51286355077291        117.62134565189302        108.65685400000000       -3.8425000000000001E-002
 C     117.45566011065520        117.62430081417889        108.65685400000000       -3.8425000000000001E-002
 C     113.12731126023574        112.76244458789759        108.65685400000000       -3.2570000000000002E-002
 C     113.12244880811366        117.60455476227430        108.65685400000000       -3.2570000000000002E-002
 C     118.85096822616804        112.76819229357208        108.65685400000000       -3.2570000000000002E-002
 C     118.84610577149627        117.61030247058045        108.65685400000000       -3.2570000000000002E-002
 C     112.42679583813899        116.39431994363994        108.65685400000000        1.9990000000000001E-002
 C     112.42922905873958        113.97127981506344        108.65685400000000        1.9990000000000001E-002
 C     119.54662119669224        113.97842711227207        108.65685400000000        1.9990000000000001E-002
 C     119.54418797502825        116.40146724295957        108.65685400000000        1.9990000000000001E-002
 C     120.95513502262406        114.02443508582239        108.65685400000000       0.22694000000000000     
 C     120.95279136225074        116.35828822957579        108.65685400000000       0.22694000000000000     
 C     111.02062567316109        114.01445882949257        108.65685400000000       0.22694000000000000     
 C     111.01828201314538        116.34831197227365        108.65685400000000       0.22694000000000000     
 O     121.58672646073950        115.19199707811771        108.65685400000000      -0.12278000000000000     
 O     110.38669057447160        115.18074997866444        108.65685400000000      -0.12278000000000000     
 O     121.60919604582404        117.38592214092635        108.65685400000000      -0.27689000000000002     
 O     121.61360228670014        112.99812156969473        108.65685400000000      -0.27689000000000002     
 O     110.35981475072747        117.37462548729631        108.65685400000000      -0.27689000000000002     
 O     110.36422099026049        112.98682491672973        108.65685400000000      -0.27689000000000002     
 H     112.59986682224265        111.81545480009331        108.65685400000000        8.6370000000000002E-002
 H     112.59310350059928        118.55048332120924        108.65685400000000        8.6370000000000002E-002
 H     119.38031353295187        111.82226373463131        108.65685400000000        8.6370000000000002E-002
 H     119.37355020714240        118.55729226038898        108.65685400000000        8.6370000000000002E-002
 H     114.96228657286689        111.76896056387957        108.65685400000000        5.6320000000000002E-002
 H     114.95542510868198        118.60172214614083        108.65685400000000        5.6320000000000002E-002
 H     117.01799192402153        111.77102490973930        108.65685400000000        5.6320000000000002E-002
 H     117.01113045753101        118.60378649058457        108.65685400000000        5.6320000000000002E-002
