          38
 lvs    232.00000000000000        0.0000000000000000        0.0000000000000000        0.0000000000000000        232.00000000000000        0.0000000000000000        0.0000000000000000        0.0000000000000000        232.00000000000000     
 C     112.74593219383857        115.98352081567728        108.65685400000000       -5.6899999999999997E-003
 C     118.42748484007110        115.98922624163440        108.65685400000000       -5.6899999999999997E-003
 C     117.00234499391695        115.98779511276496        108.65685400000000        1.2380000000000000E-002
 C     114.17107203894902        115.98495194293584        108.65685400000000        1.2380000000000000E-002
 C     116.30107516776918        114.74972485016370        108.65685400000000        1.6310000000000002E-002
 C     114.87482699086742        114.74829260871189        108.65685400000000        1.6310000000000002E-002
 C     114.87234186502755        117.22302220538772        108.65685400000000        1.6310000000000002E-002
 C     116.29859004142155        117.22445444658253        108.65685400000000        1.6310000000000002E-002
 C     114.11775692075737        113.54844624117513        108.65685400000000       -3.8425000000000001E-002
 C     117.06055348273134        113.55140140388605        108.65685400000000       -3.8425000000000001E-002
 C     114.11286355077290        118.42134565189302        108.65685400000000       -3.8425000000000001E-002
 C     117.05566011065520        118.42430081417889        108.65685400000000       -3.8425000000000001E-002
 C     112.72731126023574        113.56244458789759        108.65685400000000       -3.2570000000000002E-002
 C     112.72244880811365        118.40455476227430        108.65685400000000       -3.2570000000000002E-002
 C     118.45096822616803        113.56819229357208        108.65685400000000       -3.2570000000000002E-002
 C     118.44610577149626        118.41030247058045        108.65685400000000       -3.2570000000000002E-002
 C     112.02679583813898        117.19431994363994        108.65685400000000        1.9990000000000001E-002
 C     112.02922905873957        114.77127981506344        108.65685400000000        1.9990000000000001E-002
 C     119.14662119669224        114.77842711227207        108.65685400000000        1.9990000000000001E-002
 C     119.14418797502825        117.20146724295957        108.65685400000000        1.9990000000000001E-002
 C     120.55513502262406        114.82443508582239        108.65685400000000       0.22694000000000000     
 C     120.55279136225073        117.15828822957579        108.65685400000000       0.22694000000000000     
 C     110.62062567316109        114.81445882949257        108.65685400000000       0.22694000000000000     
 C     110.61828201314538        117.14831197227365        108.65685400000000       0.22694000000000000     
 O     121.18672646073949        115.99199707811771        108.65685400000000      -0.12278000000000000     
 O     109.98669057447160        115.98074997866443        108.65685400000000      -0.12278000000000000     
 O     121.20919604582403        118.18592214092635        108.65685400000000      -0.27689000000000002     
 O     121.21360228670014        113.79812156969473        108.65685400000000      -0.27689000000000002     
 O     109.95981475072746        118.17462548729631        108.65685400000000      -0.27689000000000002     
 O     109.96422099026049        113.78682491672973        108.65685400000000      -0.27689000000000002     
 H     112.19986682224264        112.61545480009330        108.65685400000000        8.6370000000000002E-002
 H     112.19310350059928        119.35048332120924        108.65685400000000        8.6370000000000002E-002
 H     118.98031353295187        112.62226373463130        108.65685400000000        8.6370000000000002E-002
 H     118.97355020714240        119.35729226038897        108.65685400000000        8.6370000000000002E-002
 H     114.56228657286688        112.56896056387957        108.65685400000000        5.6320000000000002E-002
 H     114.55542510868197        119.40172214614083        108.65685400000000        5.6320000000000002E-002
 H     116.61799192402152        112.57102490973929        108.65685400000000        5.6320000000000002E-002
 H     116.61113045753100        119.40378649058457        108.65685400000000        5.6320000000000002E-002
