          38
 lvs    232.00000000000000        0.0000000000000000        0.0000000000000000        0.0000000000000000        232.00000000000000        0.0000000000000000        0.0000000000000000        0.0000000000000000        232.00000000000000     
 C     113.12509236481348        115.96268098665219        108.63601417097490       -5.6899999999999997E-003
 C     118.80042254436135        115.96216394592464        108.62979170429024       -5.6899999999999997E-003
 C     117.44134418814171        116.02679430698971        108.69585319422475        1.2380000000000000E-002
 C     114.53808485486364        115.95196475885045        108.62386681591461        1.2380000000000000E-002
 C     116.67390618203390        114.72255586442841        108.62968501426471        1.6310000000000002E-002
 C     115.24973338979390        114.72319900763837        108.63176039892647        1.6310000000000002E-002
 C     115.28586910415079        117.23654944451096        108.67038123912323        1.6310000000000002E-002
 C     116.69354726737615        117.21941167253712        108.65181122595459        1.6310000000000002E-002
 C     114.55762680018617        113.58831612060392        108.69672387942879       -3.8425000000000001E-002
 C     117.43359624979283        113.52444417094753        108.62989676706148       -3.8425000000000001E-002
 C     114.47853321312485        118.38701531424496        108.62252366235194       -3.8425000000000001E-002
 C     117.44160282598263        118.41024352950632        108.64279671532742       -3.8425000000000001E-002
 C     113.16067519925646        113.59580852691830        108.69021793902071       -3.2570000000000002E-002
 C     113.09741235852894        118.37951831268958        108.63181755041528       -3.2570000000000002E-002
 C     118.86529874368509        113.58252281108913        108.67118451751705       -3.2570000000000002E-002
 C     118.85106852483251        118.41526522391669        108.66181675333624       -3.2570000000000002E-002
 C     112.42738620294293        117.19491030844388        108.65744436480394        1.9990000000000001E-002
 C     112.40495976859590        114.74701052491976        108.63258470985632        1.9990000000000001E-002
 C     119.59125059313043        114.82305650871025        108.70148339643818        1.9990000000000001E-002
 C     119.51578702167150        117.17306628960282        108.62845304664324        1.9990000000000001E-002
 C     120.98193236719169        114.85123243039001        108.68365134456762       0.22694000000000000     
 C     120.90597445861758        117.11147132594263        108.61003709636684       0.22694000000000000     
 C     111.01160354370285        114.80543670003432        108.64783187054175       0.22694000000000000     
 C     110.97636871180514        117.10639867093340        108.61494069865975       0.22694000000000000     
 O     121.60130997672114        116.00658059409935        108.67143751598164      -0.12278000000000000     
 O     110.37746579567575        115.97152519986858        108.64762922120414      -0.12278000000000000     
 O     121.60085907097842        118.17758516608073        108.64851702515438      -0.27689000000000002     
 O     121.63552227187054        113.82004155486513        108.67877398517039      -0.27689000000000002     
 O     110.40101345632213        118.21582419289098        108.69805270559466      -0.27689000000000002     
 O     110.36179705926487        113.78440098573411        108.65443006900438      -0.27689000000000002     
 H     112.55745500264030        112.57304298049095        108.61444218039765        8.6370000000000002E-002
 H     112.63146998444422        119.38884980505418        108.69522048384493        8.6370000000000002E-002
 H     119.38950748588059        112.63145768756002        108.66604795292871        8.6370000000000002E-002
 H     119.41397897317273        119.39772102641930        108.69728276603033        8.6370000000000002E-002
 H     114.91324118113162        112.51991517214431        108.60780860826473        5.6320000000000002E-002
 H     114.97910313092486        119.42540016838370        108.68053202224287        5.6320000000000002E-002
 H     117.05506769740315        112.60810068312091        108.69392977338161        5.6320000000000002E-002
 H     117.05878187759662        119.45143791065017        108.70450542006560        5.6320000000000002E-002
