          38
 lvs    232.00000000000000        0.0000000000000000        0.0000000000000000        0.0000000000000000        232.00000000000000        0.0000000000000000        0.0000000000000000        0.0000000000000000        232.00000000000000     
 C     113.14593219383858        117.58352081567728        108.65685400000000       -5.6899999999999997E-003
 C     118.82748484007111        117.58922624163439        108.65685400000000       -5.6899999999999997E-003
 C     117.40234499391696        117.58779511276495        108.65685400000000        1.2380000000000000E-002
 C     114.57107203894903        117.58495194293583        108.65685400000000        1.2380000000000000E-002
 C     116.70107516776919        116.34972485016370        108.65685400000000        1.6310000000000002E-002
 C     115.27482699086742        116.34829260871189        108.65685400000000        1.6310000000000002E-002
 C     115.27234186502756        118.82302220538772        108.65685400000000        1.6310000000000002E-002
 C     116.69859004142155        118.82445444658252        108.65685400000000        1.6310000000000002E-002
 C     114.51775692075738        115.14844624117512        108.65685400000000       -3.8425000000000001E-002
 C     117.46055348273134        115.15140140388604        108.65685400000000       -3.8425000000000001E-002
 C     114.51286355077291        120.02134565189301        108.65685400000000       -3.8425000000000001E-002
 C     117.45566011065520        120.02430081417889        108.65685400000000       -3.8425000000000001E-002
 C     113.12731126023574        115.16244458789758        108.65685400000000       -3.2570000000000002E-002
 C     113.12244880811366        120.00455476227430        108.65685400000000       -3.2570000000000002E-002
 C     118.85096822616804        115.16819229357208        108.65685400000000       -3.2570000000000002E-002
 C     118.84610577149627        120.01030247058044        108.65685400000000       -3.2570000000000002E-002
 C     112.42679583813899        118.79431994363993        108.65685400000000        1.9990000000000001E-002
 C     112.42922905873958        116.37127981506343        108.65685400000000        1.9990000000000001E-002
 C     119.54662119669224        116.37842711227206        108.65685400000000        1.9990000000000001E-002
 C     119.54418797502825        118.80146724295956        108.65685400000000        1.9990000000000001E-002
 C     120.95513502262406        116.42443508582238        108.65685400000000       0.22694000000000000     
 C     120.95279136225074        118.75828822957578        108.65685400000000       0.22694000000000000     
 C     111.02062567316109        116.41445882949256        108.65685400000000       0.22694000000000000     
 C     111.01828201314538        118.74831197227364        108.65685400000000       0.22694000000000000     
 O     121.58672646073950        117.59199707811770        108.65685400000000      -0.12278000000000000     
 O     110.38669057447160        117.58074997866443        108.65685400000000      -0.12278000000000000     
 O     121.60919604582404        119.78592214092635        108.65685400000000      -0.27689000000000002     
 O     121.61360228670014        115.39812156969472        108.65685400000000      -0.27689000000000002     
 O     110.35981475072747        119.77462548729630        108.65685400000000      -0.27689000000000002     
 O     110.36422099026049        115.38682491672972        108.65685400000000      -0.27689000000000002     
 H     112.59986682224265        114.21545480009330        108.65685400000000        8.6370000000000002E-002
 H     112.59310350059928        120.95048332120923        108.65685400000000        8.6370000000000002E-002
 H     119.38031353295187        114.22226373463130        108.65685400000000        8.6370000000000002E-002
 H     119.37355020714240        120.95729226038897        108.65685400000000        8.6370000000000002E-002
 H     114.96228657286689        114.16896056387957        108.65685400000000        5.6320000000000002E-002
 H     114.95542510868198        121.00172214614082        108.65685400000000        5.6320000000000002E-002
 H     117.01799192402153        114.17102490973929        108.65685400000000        5.6320000000000002E-002
 H     117.01113045753101        121.00378649058456        108.65685400000000        5.6320000000000002E-002
