          38
 lvs    232.00000000000000        0.0000000000000000        0.0000000000000000        0.0000000000000000        232.00000000000000        0.0000000000000000        0.0000000000000000        0.0000000000000000        232.00000000000000     
 C     113.15654996541556        115.99413858725427        108.66747177157698       -5.6899999999999997E-003
 C     118.79396893292703        115.95571033449032        108.62333809285592       -5.6899999999999997E-003
 C     117.35980891650979        115.94525903535779        108.61431792259283        1.2380000000000000E-002
 C     114.60962038195804        116.02350028594485        108.69540234300901        1.2380000000000000E-002
 C     116.66197278500506        114.71062246739957        108.61775161723587        1.6310000000000002E-002
 C     115.26998684751237        114.74345246535684        108.65201385664494        1.6310000000000002E-002
 C     115.25977521939730        117.21045555975746        108.64428735436974        1.6310000000000002E-002
 C     116.65911754925983        117.18498195442081        108.61738150783827        1.6310000000000002E-002
 C     114.47025070153900        113.50094002195675        108.60934778078162       -3.8425000000000001E-002
 C     117.43863469364385        113.52948261479855        108.63493521091250       -3.8425000000000001E-002
 C     114.55190152585003        118.46038362697014        108.69589197507712       -3.8425000000000001E-002
 C     117.44923637003383        118.41787707355752        108.65043025937862       -3.8425000000000001E-002
 C     113.15749881926895        113.59263214693080        108.68704155903320       -3.2570000000000002E-002
 C     113.16151238764252        118.44361834180316        108.69591757952885       -3.2570000000000002E-002
 C     118.86150063310760        113.57872470051164        108.66738640693956       -3.2570000000000002E-002
 C     118.88434583356057        118.44854253264475        108.69509406206430       -3.2570000000000002E-002
 C     112.47190708575110        117.23943119125205        108.70196524761211        1.9990000000000001E-002
 C     112.42362309231262        114.76567384863648        108.65124803357304        1.9990000000000001E-002
 C     119.52736728488446        114.75917320046429        108.63760008819222        1.9990000000000001E-002
 C     119.54477733657467        117.20205660450598        108.65744336154641        1.9990000000000001E-002
 C     120.90892353943076        114.77822360262908        108.61064251680669       0.22694000000000000     
 C     120.92833123461143        117.13382810193649        108.63239387236069       0.22694000000000000     
 C     111.04392634622208        114.83775950255355        108.68015467306098       0.22694000000000000     
 C     111.04437535831710        117.17440531744536        108.68294734517171       0.22694000000000000     
 O     121.55484601064575        115.96011662802395        108.62497354990624      -0.12278000000000000     
 O     110.41587340846742        116.00993281266025        108.68603683399581      -0.12278000000000000     
 O     121.59376300800187        118.17048910310419        108.64142096217783      -0.27689000000000002     
 O     121.64203063370425        113.82654991669884        108.68528234700410      -0.27689000000000002     
 O     110.37962316781788        118.19443390438673        108.67666241709041      -0.27689000000000002     
 O     110.37019580966452        113.79279973613376        108.66282881940403      -0.27689000000000002     
 H     112.55028731736869        112.56587529521934        108.60727449512603        8.6370000000000002E-002
 H     112.55505988195766        119.31243970256762        108.61881038135837        8.6370000000000002E-002
 H     119.35505293233705        112.59700313401648        108.63159339938517        8.6370000000000002E-002
 H     119.33985851752580        119.32360057077237        108.62316231038339        8.6370000000000002E-002
 H     114.98800415800042        112.59467814901311        108.68257158513353        5.6320000000000002E-002
 H     114.93507615659158        119.38137319405043        108.63650504790959        5.6320000000000002E-002
 H     117.01334990095543        112.56638288667320        108.65221197693390        5.6320000000000002E-002
 H     117.01227475265196        119.40493078570552        108.65799829512095        5.6320000000000002E-002
