          38
 lvs    232.00000000000000        0.0000000000000000        0.0000000000000000        0.0000000000000000        232.00000000000000        0.0000000000000000        0.0000000000000000        0.0000000000000000        232.00000000000000     
 C     113.14593219383858        115.98352081567728        111.45685399999999       -5.6899999999999997E-003
 C     118.82748484007111        115.98922624163440        111.45685399999999       -5.6899999999999997E-003
 C     117.40234499391696        115.98779511276496        111.45685399999999        1.2380000000000000E-002
 C     114.57107203894903        115.98495194293584        111.45685399999999        1.2380000000000000E-002
 C     116.70107516776919        114.74972485016370        111.45685399999999        1.6310000000000002E-002
 C     115.27482699086742        114.74829260871189        111.45685399999999        1.6310000000000002E-002
 C     115.27234186502756        117.22302220538772        111.45685399999999        1.6310000000000002E-002
 C     116.69859004142155        117.22445444658253        111.45685399999999        1.6310000000000002E-002
 C     114.51775692075738        113.54844624117513        111.45685399999999       -3.8425000000000001E-002
 C     117.46055348273134        113.55140140388605        111.45685399999999       -3.8425000000000001E-002
 C     114.51286355077291        118.42134565189302        111.45685399999999       -3.8425000000000001E-002
 C     117.45566011065520        118.42430081417889        111.45685399999999       -3.8425000000000001E-002
 C     113.12731126023574        113.56244458789759        111.45685399999999       -3.2570000000000002E-002
 C     113.12244880811366        118.40455476227430        111.45685399999999       -3.2570000000000002E-002
 C     118.85096822616804        113.56819229357208        111.45685399999999       -3.2570000000000002E-002
 C     118.84610577149627        118.41030247058045        111.45685399999999       -3.2570000000000002E-002
 C     112.42679583813899        117.19431994363994        111.45685399999999        1.9990000000000001E-002
 C     112.42922905873958        114.77127981506344        111.45685399999999        1.9990000000000001E-002
 C     119.54662119669224        114.77842711227207        111.45685399999999        1.9990000000000001E-002
 C     119.54418797502825        117.20146724295957        111.45685399999999        1.9990000000000001E-002
 C     120.95513502262406        114.82443508582239        111.45685399999999       0.22694000000000000     
 C     120.95279136225074        117.15828822957579        111.45685399999999       0.22694000000000000     
 C     111.02062567316109        114.81445882949257        111.45685399999999       0.22694000000000000     
 C     111.01828201314538        117.14831197227365        111.45685399999999       0.22694000000000000     
 O     121.58672646073950        115.99199707811771        111.45685399999999      -0.12278000000000000     
 O     110.38669057447160        115.98074997866443        111.45685399999999      -0.12278000000000000     
 O     121.60919604582404        118.18592214092635        111.45685399999999      -0.27689000000000002     
 O     121.61360228670014        113.79812156969473        111.45685399999999      -0.27689000000000002     
 O     110.35981475072747        118.17462548729631        111.45685399999999      -0.27689000000000002     
 O     110.36422099026049        113.78682491672973        111.45685399999999      -0.27689000000000002     
 H     112.59986682224265        112.61545480009330        111.45685399999999        8.6370000000000002E-002
 H     112.59310350059928        119.35048332120924        111.45685399999999        8.6370000000000002E-002
 H     119.38031353295187        112.62226373463130        111.45685399999999        8.6370000000000002E-002
 H     119.37355020714240        119.35729226038897        111.45685399999999        8.6370000000000002E-002
 H     114.96228657286689        112.56896056387957        111.45685399999999        5.6320000000000002E-002
 H     114.95542510868198        119.40172214614083        111.45685399999999        5.6320000000000002E-002
 H     117.01799192402153        112.57102490973929        111.45685399999999        5.6320000000000002E-002
 H     117.01113045753101        119.40378649058457        111.45685399999999        5.6320000000000002E-002
