          38
 lvs    232.00000000000000        0.0000000000000000        0.0000000000000000        0.0000000000000000        232.00000000000000        0.0000000000000000        0.0000000000000000        0.0000000000000000        232.00000000000000     
 C     113.11028951805962        115.94787813989832        108.62121132422104       -5.6899999999999997E-003
 C     118.80005090792332        115.96179230948661        108.62942006785221       -5.6899999999999997E-003
 C     117.38872009369520        115.97417021254320        108.64322909977824        1.2380000000000000E-002
 C     114.61388408880848        116.02776399279529        108.69966604985945        1.2380000000000000E-002
 C     116.65597452992698        114.70462421232149        108.61175336215778        1.6310000000000002E-002
 C     115.32432335432848        114.79778897217295        108.70635036346106        1.6310000000000002E-002
 C     115.28290239261770        117.23358273297787        108.66741452759014        1.6310000000000002E-002
 C     116.68619395378985        117.21205835895083        108.64445791236830        1.6310000000000002E-002
 C     114.48250003062697        113.51318935104472        108.62159710986958       -3.8425000000000001E-002
 C     117.49006193902368        113.58090986017838        108.68636245629233       -3.8425000000000001E-002
 C     114.47075032816895        118.37923242928906        108.61474077739604       -3.8425000000000001E-002
 C     117.42774025413961        118.39638095766330        108.62893414348440       -3.8425000000000001E-002
 C     113.17328289300693        113.60841622066877        108.70282563277118       -3.2570000000000002E-002
 C     113.16910293562476        118.45120888978541        108.70350812751110       -3.2570000000000002E-002
 C     118.84432490693079        113.56154897433484        108.65021068076275       -3.2570000000000002E-002
 C     118.89163392685498        118.45583062593916        108.70238215535871       -3.2570000000000002E-002
 C     112.44755664949629        117.21508075499725        108.67761481135730        1.9990000000000001E-002
 C     112.39485704691167        114.73690780323552        108.62248198817208        1.9990000000000001E-002
 C     119.56782503750948        114.79963095308931        108.67805784081723        1.9990000000000001E-002
 C     119.50801979814806        117.16529906607937        108.62068582311980        1.9990000000000001E-002
 C     120.92915512891869        114.79845519211702        108.63087410629463       0.22694000000000000     
 C     120.95976080603576        117.16525767336081        108.66382344378502       0.22694000000000000     
 C     110.97805055107088        114.77188370740235        108.61427887790978       0.22694000000000000     
 C     111.06389472974362        117.19392468887189        108.70246671659824       0.22694000000000000     
 O     121.62155840645644        116.02682902383465        108.69168594571694      -0.12278000000000000     
 O     110.36257563872596        115.95663504291879        108.63273906425435      -0.12278000000000000     
 O     121.62743789872951        118.20416399383183        108.67509585290547      -0.27689000000000002     
 O     121.61196188972740        113.79648117272198        108.65521360302725      -0.27689000000000002     
 O     110.40652460004651        118.22133533661535        108.70356384931904      -0.27689000000000002     
 O     110.40184716549049        113.82445109195973        108.69448017523000      -0.27689000000000002     
 H     112.57411114910347        112.58969912695413        108.63109832686082        8.6370000000000002E-002
 H     112.61968776209329        119.37706758270325        108.68343826149400        8.6370000000000002E-002
 H     119.33306111980491        112.57501132148434        108.60960158685303        8.6370000000000002E-002
 H     119.38760135947565        119.37134341272223        108.67090515233325        8.6370000000000002E-002
 H     114.97664122874238        112.58331521975506        108.67120865587549        5.6320000000000002E-002
 H     114.90885825259646        119.35515529005531        108.61028714391448        5.6320000000000002E-002
 H     117.01403107568751        112.56706406140528        108.65289315166598        5.6320000000000002E-002
 H     116.99301152686685        119.38566755992041        108.63873506933584        5.6320000000000002E-002
