          38
 lvs    232.00000000000000        0.0000000000000000        0.0000000000000000        0.0000000000000000        232.00000000000000        0.0000000000000000        0.0000000000000000        0.0000000000000000        232.00000000000000     
 C     113.14722789001284        115.98481651185155        108.65814969617426       -5.6899999999999997E-003
 C     118.79541081626057        115.95715221782386        108.62477997618946       -5.6899999999999997E-003
 C     117.36211411646049        115.94756423530849        108.61662312254353        1.2380000000000000E-002
 C     114.54252243912688        115.95640234311369        108.62830440017785        1.2380000000000000E-002
 C     116.69114085263720        114.73979053503172        108.64691968486801        1.6310000000000002E-002
 C     115.25077927175454        114.72424488959901        108.63280628088711        1.6310000000000002E-002
 C     115.31646074547047        117.26714108583063        108.70097288044290        1.6310000000000002E-002
 C     116.73417243988055        117.26003684504153        108.69243639845899        1.6310000000000002E-002
 C     114.47021363254848        113.50090295296621        108.60931071179110       -3.8425000000000001E-002
 C     117.47044554870627        113.56129346986097        108.66674606597492       -3.8425000000000001E-002
 C     114.49781046527690        118.40629256639701        108.64180091450399       -3.8425000000000001E-002
 C     117.42168274161186        118.39032344513555        108.62287663095665       -3.8425000000000001E-002
 C     113.16675558655629        113.60188891421814        108.69629832632054       -3.2570000000000002E-002
 C     113.11418907779527        118.39629503195592        108.64859426968161       -3.2570000000000002E-002
 C     118.80631026667307        113.52353433407711        108.61219604050503       -3.2570000000000002E-002
 C     118.82323888333836        118.38743558242254        108.63398711184209       -3.2570000000000002E-002
 C     112.43472530775577        117.20224941325672        108.66478346961678        1.9990000000000001E-002
 C     112.46499029014670        114.80704104647056        108.69261523140712        1.9990000000000001E-002
 C     119.59157045121441        114.82337636679424        108.70180325452216        1.9990000000000001E-002
 C     119.52969129721650        117.18697056514782        108.64235732218825        1.9990000000000001E-002
 C     120.98816604499369        114.85746610819201        108.68988502236962       0.22694000000000000     
 C     120.96809883727474        117.17359570459979        108.67216147502400       0.22694000000000000     
 C     111.02125614986980        114.81508930620127        108.65748447670870       0.22694000000000000     
 C     111.04673769969705        117.17676765882531        108.68530968655166       0.22694000000000000     
 O     121.58040555591920        115.98567617329741        108.65053309517970      -0.12278000000000000     
 O     110.38414249339385        115.97820189758669        108.65430591892225      -0.12278000000000000     
 O     121.58112862879024        118.15785472389256        108.62878658296620      -0.27689000000000002     
 O     121.56369831330582        113.74821759630041        108.60695002660567      -0.27689000000000002     
 O     110.35608608687036        118.17089682343921        108.65312533614289      -0.27689000000000002     
 O     110.35625079115749        113.77885471762673        108.64888380089700      -0.27689000000000002     
 H     112.57655925730475        112.59214723515541        108.63354643506210        8.6370000000000002E-002
 H     112.60537647961705        119.36275630022701        108.66912697901776        8.6370000000000002E-002
 H     119.39766263307996        112.63961283475939        108.67420310012808        8.6370000000000002E-002
 H     119.36861147395216        119.35235352719873        108.65191526680975        8.6370000000000002E-002
 H     114.92739887667661        112.53407286768929        108.62196630380971        5.6320000000000002E-002
 H     114.98799410393475        119.43429114139360        108.68942299525277        5.6320000000000002E-002
 H     117.00602740594624        112.55906039166400        108.64488948192471        5.6320000000000002E-002
 H     117.02930557219763        119.42196160525118        108.67502911466661        5.6320000000000002E-002
