          38
 lvs    232.00000000000000        0.0000000000000000        0.0000000000000000        0.0000000000000000        232.00000000000000        0.0000000000000000        0.0000000000000000        0.0000000000000000        232.00000000000000     
 C     113.14970179884656        115.98729042068527        108.66062360500798       -5.6899999999999997E-003
 C     118.83312853672724        115.99486993829053        108.66249769665613       -5.6899999999999997E-003
 C     117.44392823811131        116.02937835695931        108.69843724419435        1.2380000000000000E-002
 C     114.57283462772033        115.98671453170714        108.65861658877130        1.2380000000000000E-002
 C     116.69623263096966        114.74488231336417        108.65201146320047        1.6310000000000002E-002
 C     115.22520409295016        114.69866971079463        108.60723110208274        1.6310000000000002E-002
 C     115.22440858826791        117.17508892862807        108.60892072324035        1.6310000000000002E-002
 C     116.66645752717984        117.19232193234082        108.62472148575829        1.6310000000000002E-002
 C     114.55558025409564        113.58626957451339        108.69467733333826       -3.8425000000000001E-002
 C     117.45412358882554        113.54497150998024        108.65042410609419       -3.8425000000000001E-002
 C     114.46406344728464        118.37254554840476        108.60805389651173       -3.8425000000000001E-002
 C     117.48309413393451        118.45173483745820        108.68428802327931       -3.8425000000000001E-002
 C     113.16142878936770        113.59656211702955        108.69097152913196       -3.2570000000000002E-002
 C     113.07798749540477        118.36009344956541        108.61239268729111       -3.2570000000000002E-002
 C     118.85555677181036        113.57278083921440        108.66144254564232       -3.2570000000000002E-002
 C     118.80155855625128        118.36575525533546        108.61230678475501       -3.2570000000000002E-002
 C     112.45956079514465        117.22708490064561        108.68961895700566        1.9990000000000001E-002
 C     112.47204906363123        114.81409981995509        108.69967400489165        1.9990000000000001E-002
 C     119.57864435174193        114.81045026732176        108.68887715504968        1.9990000000000001E-002
 C     119.57033950581906        117.22761877375038        108.68300553079081        1.9990000000000001E-002
 C     120.93559418597167        114.80489424916999        108.63731316334760       0.22694000000000000     
 C     120.94730435116071        117.15280121848576        108.65136698890997       0.22694000000000000     
 C     111.00775573865573        114.80158889498720        108.64398406549464       0.22694000000000000     
 C     111.02842195793204        117.15845191706030        108.66699394478665       0.22694000000000000     
 O     121.58039133472423        115.98566195210243        108.65051887398472      -0.12278000000000000     
 O     110.42640809122494        116.02046749541778        108.69657151675334      -0.12278000000000000     
 O     121.59229745733735        118.16902355243967        108.63995541151331      -0.27689000000000002     
 O     121.61608510050034        113.80060438349493        108.65933681380019      -0.27689000000000002     
 O     110.38539770017692        118.20020843674577        108.68243694944945      -0.27689000000000002     
 O     110.32380474810910        113.74640867457833        108.61643775784860      -0.27689000000000002     
 H     112.60808896814677        112.62367694599743        108.66507614590412        8.6370000000000002E-002
 H     112.55421661113999        119.31159643174995        108.61796711054070        8.6370000000000002E-002
 H     119.35191224468794        112.59386244636737        108.62845271173606        8.6370000000000002E-002
 H     119.36248193618322        119.34622398942979        108.64578572904081        8.6370000000000002E-002
 H     114.95788182811668        112.56455581912937        108.65244925524979        5.6320000000000002E-002
 H     114.93525260958594        119.38154964704479        108.63668150090396        5.6320000000000002E-002
 H     117.00908656601698        112.56211955173474        108.64794864199544        5.6320000000000002E-002
 H     117.05799056252224        119.45064659557579        108.70371410499122        5.6320000000000002E-002
