          38
 lvs    232.00000000000000        0.0000000000000000        0.0000000000000000        0.0000000000000000        232.00000000000000        0.0000000000000000        0.0000000000000000        0.0000000000000000        232.00000000000000     
 C     113.13271397918268        115.97030260102139        108.64363578534410       -5.6899999999999997E-003
 C     118.85299374738024        116.01473514894353        108.68236290730913       -5.6899999999999997E-003
 C     117.39432139680223        115.97977151565023        108.64883040288527        1.2380000000000000E-002
 C     114.52373911188177        115.93761901586858        108.60952107293274        1.2380000000000000E-002
 C     116.66230899557432        114.71095867796883        108.61808782780513        1.6310000000000002E-002
 C     115.31565478715629        114.78912040500076        108.69768179628886        1.6310000000000002E-002
 C     115.32219575098416        117.27287609134433        108.70670788595660        1.6310000000000002E-002
 C     116.66368037381194        117.18954477897292        108.62194433239038        1.6310000000000002E-002
 C     114.47057114651402        113.50126046693177        108.60966822575664       -3.8425000000000001E-002
 C     117.44566846802407        113.53651638917877        108.64196898529272       -3.8425000000000001E-002
 C     114.53397007244605        118.44245217356617        108.67796052167314       -3.8425000000000001E-002
 C     117.40744510100753        118.37608580453121        108.60863899035232       -3.8425000000000001E-002
 C     113.13929444896749        113.57442777662934        108.66883718873174       -3.2570000000000002E-002
 C     113.10203094940583        118.38413690356647        108.63643614129217       -3.2570000000000002E-002
 C     118.81695387338226        113.53417794078631        108.62283964721422       -3.2570000000000002E-002
 C     118.80627434529077        118.37047104437495        108.61702257379450       -3.2570000000000002E-002
 C     112.45088913428197        117.21841323978292        108.68094729614297        1.9990000000000001E-002
 C     112.47149899864611        114.81354975496997        108.69912393990653        1.9990000000000001E-002
 C     119.51052368329657        114.74232959887640        108.62075648660432        1.9990000000000001E-002
 C     119.49751180492238        117.15479107285370        108.61017782989413        1.9990000000000001E-002
 C     120.94747920335286        114.81677926655118        108.64919818072879       0.22694000000000000     
 C     120.98580236428199        117.19129923160705        108.68986500203125       0.22694000000000000     
 C     111.02536838404708        114.81920154037856        108.66159671088599       0.22694000000000000     
 C     111.00291035007007        117.13294030919833        108.64148233692468       0.22694000000000000     
 O     121.62076884686287        116.02603946424108        108.69089638612337      -0.12278000000000000     
 O     110.41277905090303        116.00683845509586        108.68294247643142      -0.12278000000000000     
 O     121.64996458560226        118.22669068070458        108.69762253977822      -0.27689000000000002     
 O     121.60218003330478        113.78669931629936        108.64543174660463      -0.27689000000000002     
 O     110.34366845690751        118.15847919347635        108.64070770618004      -0.27689000000000002     
 O     110.37561459158321        113.79821851805245        108.66824760132272      -0.27689000000000002     
 H     112.57865111035501        112.59423908820567        108.63563828811236        8.6370000000000002E-002
 H     112.56791196997098        119.32529179058093        108.63166246937169        8.6370000000000002E-002
 H     119.41930579650443        112.66125599818386        108.69584626355255        8.6370000000000002E-002
 H     119.42035827784350        119.40410033109008        108.70366207070110        8.6370000000000002E-002
 H     114.97426573130070        112.58093972231339        108.66883315843381        5.6320000000000002E-002
 H     114.92635383085029        119.37265086830914        108.62778272216831        5.6320000000000002E-002
 H     117.05259596931330        112.60562895503107        108.69145804529177        5.6320000000000002E-002
 H     116.97533086352341        119.36798689657697        108.62105440599240        5.6320000000000002E-002
