          38
 lvs    232.00000000000000        0.0000000000000000        0.0000000000000000        0.0000000000000000        232.00000000000000        0.0000000000000000        0.0000000000000000        0.0000000000000000        232.00000000000000     
 C     113.14593219383858        116.68352081567728        108.65685400000000       -5.6899999999999997E-003
 C     118.82748484007111        116.68922624163440        108.65685400000000       -5.6899999999999997E-003
 C     117.40234499391696        116.68779511276496        108.65685400000000        1.2380000000000000E-002
 C     114.57107203894903        116.68495194293584        108.65685400000000        1.2380000000000000E-002
 C     116.70107516776919        115.44972485016370        108.65685400000000        1.6310000000000002E-002
 C     115.27482699086742        115.44829260871190        108.65685400000000        1.6310000000000002E-002
 C     115.27234186502756        117.92302220538772        108.65685400000000        1.6310000000000002E-002
 C     116.69859004142155        117.92445444658253        108.65685400000000        1.6310000000000002E-002
 C     114.51775692075738        114.24844624117513        108.65685400000000       -3.8425000000000001E-002
 C     117.46055348273134        114.25140140388605        108.65685400000000       -3.8425000000000001E-002
 C     114.51286355077291        119.12134565189302        108.65685400000000       -3.8425000000000001E-002
 C     117.45566011065520        119.12430081417889        108.65685400000000       -3.8425000000000001E-002
 C     113.12731126023574        114.26244458789759        108.65685400000000       -3.2570000000000002E-002
 C     113.12244880811366        119.10455476227430        108.65685400000000       -3.2570000000000002E-002
 C     118.85096822616804        114.26819229357208        108.65685400000000       -3.2570000000000002E-002
 C     118.84610577149627        119.11030247058045        108.65685400000000       -3.2570000000000002E-002
 C     112.42679583813899        117.89431994363994        108.65685400000000        1.9990000000000001E-002
 C     112.42922905873958        115.47127981506344        108.65685400000000        1.9990000000000001E-002
 C     119.54662119669224        115.47842711227207        108.65685400000000        1.9990000000000001E-002
 C     119.54418797502825        117.90146724295957        108.65685400000000        1.9990000000000001E-002
 C     120.95513502262406        115.52443508582239        108.65685400000000       0.22694000000000000     
 C     120.95279136225074        117.85828822957579        108.65685400000000       0.22694000000000000     
 C     111.02062567316109        115.51445882949257        108.65685400000000       0.22694000000000000     
 C     111.01828201314538        117.84831197227365        108.65685400000000       0.22694000000000000     
 O     121.58672646073950        116.69199707811771        108.65685400000000      -0.12278000000000000     
 O     110.38669057447160        116.68074997866444        108.65685400000000      -0.12278000000000000     
 O     121.60919604582404        118.88592214092635        108.65685400000000      -0.27689000000000002     
 O     121.61360228670014        114.49812156969473        108.65685400000000      -0.27689000000000002     
 O     110.35981475072747        118.87462548729631        108.65685400000000      -0.27689000000000002     
 O     110.36422099026049        114.48682491672973        108.65685400000000      -0.27689000000000002     
 H     112.59986682224265        113.31545480009331        108.65685400000000        8.6370000000000002E-002
 H     112.59310350059928        120.05048332120924        108.65685400000000        8.6370000000000002E-002
 H     119.38031353295187        113.32226373463131        108.65685400000000        8.6370000000000002E-002
 H     119.37355020714240        120.05729226038898        108.65685400000000        8.6370000000000002E-002
 H     114.96228657286689        113.26896056387957        108.65685400000000        5.6320000000000002E-002
 H     114.95542510868198        120.10172214614083        108.65685400000000        5.6320000000000002E-002
 H     117.01799192402153        113.27102490973930        108.65685400000000        5.6320000000000002E-002
 H     117.01113045753101        120.10378649058457        108.65685400000000        5.6320000000000002E-002
