          38
 lvs    232.00000000000000        0.0000000000000000        0.0000000000000000        0.0000000000000000        232.00000000000000        0.0000000000000000        0.0000000000000000        0.0000000000000000        232.00000000000000     
 C     113.13188219548913        115.96947081732783        108.64280400165055       -5.6899999999999997E-003
 C     118.82117399143269        115.98291539299598        108.65054315136157       -5.6899999999999997E-003
 C     117.44666012679876        116.03211024564676        108.70116913288180        1.2380000000000000E-002
 C     114.58641965887634        116.00029956286315        108.67220161992731        1.2380000000000000E-002
 C     116.70757942585131        114.75622910824582        108.66335825808211        1.6310000000000002E-002
 C     115.25728994506990        114.73075556291437        108.63931695420247        1.6310000000000002E-002
 C     115.30995024991833        117.26063059027850        108.69446238489077        1.6310000000000002E-002
 C     116.65523724453604        117.18110164969701        108.61350120311448        1.6310000000000002E-002
 C     114.53423578479617        113.56492510521392        108.67333286403878       -3.8425000000000001E-002
 C     117.41186039341984        113.50270831457455        108.60816091068850       -3.8425000000000001E-002
 C     114.53236148823751        118.44084358935763        108.67635193746460       -3.8425000000000001E-002
 C     117.41354298847313        118.38218369199681        108.61473687781792       -3.8425000000000001E-002
 C     113.14731574314941        113.58244907081125        108.67685848291366       -3.2570000000000002E-002
 C     113.12192711927241        118.40403307343306        108.65633231115875       -3.2570000000000002E-002
 C     118.87468708534462        113.59191115274866        108.68057285917658       -3.2570000000000002E-002
 C     118.85297463315884        118.41717133224302        108.66372286166256       -3.2570000000000002E-002
 C     112.43896157268762        117.20648567818857        108.66901973454863        1.9990000000000001E-002
 C     112.46718041944797        114.80923117577183        108.69480536070839        1.9990000000000001E-002
 C     119.54948677198196        114.78129268756179        108.65971957528971        1.9990000000000001E-002
 C     119.54004925221378        117.19732852014509        108.65271527718552        1.9990000000000001E-002
 C     120.96876768264737        114.83806774584569        108.67048666002330       0.22694000000000000     
 C     120.92281302089698        117.12830988822203        108.62687565864624       0.22694000000000000     
 C     111.02317713699631        114.81701029332778        108.65940546383521       0.22694000000000000     
 C     111.05709774891486        117.18712770804312        108.69566973576947       0.22694000000000000     
 O     121.59153640120309        115.99680701858129        108.66166394046358      -0.12278000000000000     
 O     110.38095568023172        115.97501508442456        108.65111910576012      -0.12278000000000000     
 O     121.65717855544148        118.23390465054379        108.70483650961744      -0.27689000000000002     
 O     121.61898288136541        113.80350216436000        108.66223459466526      -0.27689000000000002     
 O     110.33951222039830        118.15432295696715        108.63655146967083      -0.27689000000000002     
 O     110.39817083993418        113.82077476640342        108.69080384967369      -0.27689000000000002     
 H     112.56784146296553        112.58342944081619        108.62482864072288        8.6370000000000002E-002
 H     112.56381010300684        119.32118992361680        108.62756060240756        8.6370000000000002E-002
 H     119.36292447650925        112.60487467818868        108.63946494355737        8.6370000000000002E-002
 H     119.32988246634550        119.31362451959207        108.61318625920309        8.6370000000000002E-002
 H     115.00613816714764        112.61281215816032        108.70070559428075        5.6320000000000002E-002
 H     114.98191193503061        119.42820897248946        108.68334082634863        5.6320000000000002E-002
 H     116.99158029091325        112.54461327663101        108.63044236689171        5.6320000000000002E-002
 H     117.03432209804470        119.42697813109825        108.68004564051368        5.6320000000000002E-002
