          38
 lvs    232.00000000000000        0.0000000000000000        0.0000000000000000        0.0000000000000000        232.00000000000000        0.0000000000000000        0.0000000000000000        0.0000000000000000        232.00000000000000     
 C     113.10462625999259        115.94221488183129        108.61554806615401       -5.6899999999999997E-003
 C     118.86428469880528        116.02602610036857        108.69365385873417       -5.6899999999999997E-003
 C     117.44357760453948        116.02902772338749        108.69808661062252        1.2380000000000000E-002
 C     114.60869262914420        116.02257253313101        108.69447459019517        1.2380000000000000E-002
 C     116.65936266792760        114.70801235032211        108.61514150015840        1.6310000000000002E-002
 C     115.26355011333068        114.73701573117515        108.64557712246325        1.6310000000000002E-002
 C     115.27113606357048        117.22181640393065        108.65564819854292        1.6310000000000002E-002
 C     116.67898499296972        117.20484939813069        108.63724895154816        1.6310000000000002E-002
 C     114.51677307748668        113.54746239790443        108.65587015672929       -3.8425000000000001E-002
 C     117.43220573476276        113.52305365591747        108.62850625203141       -3.8425000000000001E-002
 C     114.50922967454741        118.41771177566753        108.65322012377450       -3.8425000000000001E-002
 C     117.46660782193619        118.43524852545988        108.66780171128099       -3.8425000000000001E-002
 C     113.16117998090829        113.59631330857013        108.69072272067254       -3.2570000000000002E-002
 C     113.12787097024159        118.40997692440223        108.66227616212792       -3.2570000000000002E-002
 C     118.87624718979490        113.59347125719894        108.68213296362686       -3.2570000000000002E-002
 C     118.84509420315017        118.40929090223435        108.65584243165389       -3.2570000000000002E-002
 C     112.38473341807635        117.15225752357730        108.61479157993736        1.9990000000000001E-002
 C     112.47542025056313        114.81747100688699        108.70304519182355        1.9990000000000001E-002
 C     119.56599056017144        114.79779647575127        108.67622336347920        1.9990000000000001E-002
 C     119.58527510224545        117.24255437017676        108.69794112721719        1.9990000000000001E-002
 C     121.00074314796525        114.87004321116358        108.70246212534119       0.22694000000000000     
 C     120.92480658435259        117.13030345167765        108.62886922210186       0.22694000000000000     
 C     111.03255277668509        114.82638593301657        108.66878110352400       0.22694000000000000     
 C     111.02138706693543        117.15141702606370        108.65995905379005       0.22694000000000000     
 O     121.60794757688107        116.01321819425928        108.67807511614157      -0.12278000000000000     
 O     110.36417018813493        115.95822959232777        108.63433361366333      -0.12278000000000000     
 O     121.60421426949492        118.18094036459723        108.65187222367088      -0.27689000000000002     
 O     121.63880109431933        113.82332037731392        108.68205280761919      -0.27689000000000002     
 O     110.38065397473098        118.19546471129982        108.67769322400351      -0.27689000000000002     
 O     110.40715769891089        113.82976162538013        108.69979070865040      -0.27689000000000002     
 H     112.63107859420273        112.64666657205339        108.68806577196008        8.6370000000000002E-002
 H     112.56116145684358        119.31854127745353        108.62491195624429        8.6370000000000002E-002
 H     119.34275449829745        112.58470469997688        108.61929496534557        8.6370000000000002E-002
 H     119.40700819725353        119.39075025050010        108.69031199011113        8.6370000000000002E-002
 H     115.00715051200639        112.61382450301907        108.70171793913950        5.6320000000000002E-002
 H     114.96647871793043        119.41277575538928        108.66790760924845        5.6320000000000002E-002
 H     117.05840086447434        112.61143385019210        108.69726294045280        5.6320000000000002E-002
 H     117.05418528074277        119.44684131379633        108.69990882321176        5.6320000000000002E-002
