          38
 lvs    232.00000000000000        0.0000000000000000        0.0000000000000000        0.0000000000000000        232.00000000000000        0.0000000000000000        0.0000000000000000        0.0000000000000000        232.00000000000000     
 C     114.84593219383858        115.98352081567728        108.65685400000000       -5.6899999999999997E-003
 C     120.52748484007111        115.98922624163440        108.65685400000000       -5.6899999999999997E-003
 C     119.10234499391696        115.98779511276496        108.65685400000000        1.2380000000000000E-002
 C     116.27107203894903        115.98495194293584        108.65685400000000        1.2380000000000000E-002
 C     118.40107516776919        114.74972485016370        108.65685400000000        1.6310000000000002E-002
 C     116.97482699086743        114.74829260871189        108.65685400000000        1.6310000000000002E-002
 C     116.97234186502756        117.22302220538772        108.65685400000000        1.6310000000000002E-002
 C     118.39859004142156        117.22445444658253        108.65685400000000        1.6310000000000002E-002
 C     116.21775692075738        113.54844624117513        108.65685400000000       -3.8425000000000001E-002
 C     119.16055348273134        113.55140140388605        108.65685400000000       -3.8425000000000001E-002
 C     116.21286355077291        118.42134565189302        108.65685400000000       -3.8425000000000001E-002
 C     119.15566011065521        118.42430081417889        108.65685400000000       -3.8425000000000001E-002
 C     114.82731126023575        113.56244458789759        108.65685400000000       -3.2570000000000002E-002
 C     114.82244880811366        118.40455476227430        108.65685400000000       -3.2570000000000002E-002
 C     120.55096822616804        113.56819229357208        108.65685400000000       -3.2570000000000002E-002
 C     120.54610577149627        118.41030247058045        108.65685400000000       -3.2570000000000002E-002
 C     114.12679583813899        117.19431994363994        108.65685400000000        1.9990000000000001E-002
 C     114.12922905873958        114.77127981506344        108.65685400000000        1.9990000000000001E-002
 C     121.24662119669225        114.77842711227207        108.65685400000000        1.9990000000000001E-002
 C     121.24418797502825        117.20146724295957        108.65685400000000        1.9990000000000001E-002
 C     122.65513502262407        114.82443508582239        108.65685400000000       0.22694000000000000     
 C     122.65279136225074        117.15828822957579        108.65685400000000       0.22694000000000000     
 C     112.72062567316109        114.81445882949257        108.65685400000000       0.22694000000000000     
 C     112.71828201314538        117.14831197227365        108.65685400000000       0.22694000000000000     
 O     123.28672646073950        115.99199707811771        108.65685400000000      -0.12278000000000000     
 O     112.08669057447160        115.98074997866443        108.65685400000000      -0.12278000000000000     
 O     123.30919604582404        118.18592214092635        108.65685400000000      -0.27689000000000002     
 O     123.31360228670015        113.79812156969473        108.65685400000000      -0.27689000000000002     
 O     112.05981475072747        118.17462548729631        108.65685400000000      -0.27689000000000002     
 O     112.06422099026049        113.78682491672973        108.65685400000000      -0.27689000000000002     
 H     114.29986682224265        112.61545480009330        108.65685400000000        8.6370000000000002E-002
 H     114.29310350059929        119.35048332120924        108.65685400000000        8.6370000000000002E-002
 H     121.08031353295188        112.62226373463130        108.65685400000000        8.6370000000000002E-002
 H     121.07355020714240        119.35729226038897        108.65685400000000        8.6370000000000002E-002
 H     116.66228657286689        112.56896056387957        108.65685400000000        5.6320000000000002E-002
 H     116.65542510868198        119.40172214614083        108.65685400000000        5.6320000000000002E-002
 H     118.71799192402153        112.57102490973929        108.65685400000000        5.6320000000000002E-002
 H     118.71113045753101        119.40378649058457        108.65685400000000        5.6320000000000002E-002
