          38
 lvs    232.00000000000000        0.0000000000000000        0.0000000000000000        0.0000000000000000        232.00000000000000        0.0000000000000000        0.0000000000000000        0.0000000000000000        232.00000000000000     
 C     113.14593219383858        114.28352081567728        108.65685400000000       -5.6899999999999997E-003
 C     118.82748484007111        114.28922624163440        108.65685400000000       -5.6899999999999997E-003
 C     117.40234499391696        114.28779511276495        108.65685400000000        1.2380000000000000E-002
 C     114.57107203894903        114.28495194293583        108.65685400000000        1.2380000000000000E-002
 C     116.70107516776919        113.04972485016370        108.65685400000000        1.6310000000000002E-002
 C     115.27482699086742        113.04829260871189        108.65685400000000        1.6310000000000002E-002
 C     115.27234186502756        115.52302220538772        108.65685400000000        1.6310000000000002E-002
 C     116.69859004142155        115.52445444658252        108.65685400000000        1.6310000000000002E-002
 C     114.51775692075738        111.84844624117513        108.65685400000000       -3.8425000000000001E-002
 C     117.46055348273134        111.85140140388604        108.65685400000000       -3.8425000000000001E-002
 C     114.51286355077291        116.72134565189302        108.65685400000000       -3.8425000000000001E-002
 C     117.45566011065520        116.72430081417889        108.65685400000000       -3.8425000000000001E-002
 C     113.12731126023574        111.86244458789758        108.65685400000000       -3.2570000000000002E-002
 C     113.12244880811366        116.70455476227430        108.65685400000000       -3.2570000000000002E-002
 C     118.85096822616804        111.86819229357208        108.65685400000000       -3.2570000000000002E-002
 C     118.84610577149627        116.71030247058044        108.65685400000000       -3.2570000000000002E-002
 C     112.42679583813899        115.49431994363994        108.65685400000000        1.9990000000000001E-002
 C     112.42922905873958        113.07127981506343        108.65685400000000        1.9990000000000001E-002
 C     119.54662119669224        113.07842711227207        108.65685400000000        1.9990000000000001E-002
 C     119.54418797502825        115.50146724295956        108.65685400000000        1.9990000000000001E-002
 C     120.95513502262406        113.12443508582238        108.65685400000000       0.22694000000000000     
 C     120.95279136225074        115.45828822957579        108.65685400000000       0.22694000000000000     
 C     111.02062567316109        113.11445882949256        108.65685400000000       0.22694000000000000     
 C     111.01828201314538        115.44831197227364        108.65685400000000       0.22694000000000000     
 O     121.58672646073950        114.29199707811770        108.65685400000000      -0.12278000000000000     
 O     110.38669057447160        114.28074997866443        108.65685400000000      -0.12278000000000000     
 O     121.60919604582404        116.48592214092635        108.65685400000000      -0.27689000000000002     
 O     121.61360228670014        112.09812156969473        108.65685400000000      -0.27689000000000002     
 O     110.35981475072747        116.47462548729631        108.65685400000000      -0.27689000000000002     
 O     110.36422099026049        112.08682491672973        108.65685400000000      -0.27689000000000002     
 H     112.59986682224265        110.91545480009330        108.65685400000000        8.6370000000000002E-002
 H     112.59310350059928        117.65048332120924        108.65685400000000        8.6370000000000002E-002
 H     119.38031353295187        110.92226373463130        108.65685400000000        8.6370000000000002E-002
 H     119.37355020714240        117.65729226038897        108.65685400000000        8.6370000000000002E-002
 H     114.96228657286689        110.86896056387957        108.65685400000000        5.6320000000000002E-002
 H     114.95542510868198        117.70172214614082        108.65685400000000        5.6320000000000002E-002
 H     117.01799192402153        110.87102490973929        108.65685400000000        5.6320000000000002E-002
 H     117.01113045753101        117.70378649058456        108.65685400000000        5.6320000000000002E-002
