          38
 lvs    232.00000000000000        0.0000000000000000        0.0000000000000000        0.0000000000000000        232.00000000000000        0.0000000000000000        0.0000000000000000        0.0000000000000000        232.00000000000000     
 C     113.14593219383858        114.68352081567728        108.65685400000000       -5.6899999999999997E-003
 C     118.82748484007111        114.68922624163440        108.65685400000000       -5.6899999999999997E-003
 C     117.40234499391696        114.68779511276496        108.65685400000000        1.2380000000000000E-002
 C     114.57107203894903        114.68495194293584        108.65685400000000        1.2380000000000000E-002
 C     116.70107516776919        113.44972485016370        108.65685400000000        1.6310000000000002E-002
 C     115.27482699086742        113.44829260871190        108.65685400000000        1.6310000000000002E-002
 C     115.27234186502756        115.92302220538772        108.65685400000000        1.6310000000000002E-002
 C     116.69859004142155        115.92445444658253        108.65685400000000        1.6310000000000002E-002
 C     114.51775692075738        112.24844624117513        108.65685400000000       -3.8425000000000001E-002
 C     117.46055348273134        112.25140140388605        108.65685400000000       -3.8425000000000001E-002
 C     114.51286355077291        117.12134565189302        108.65685400000000       -3.8425000000000001E-002
 C     117.45566011065520        117.12430081417889        108.65685400000000       -3.8425000000000001E-002
 C     113.12731126023574        112.26244458789759        108.65685400000000       -3.2570000000000002E-002
 C     113.12244880811366        117.10455476227430        108.65685400000000       -3.2570000000000002E-002
 C     118.85096822616804        112.26819229357208        108.65685400000000       -3.2570000000000002E-002
 C     118.84610577149627        117.11030247058045        108.65685400000000       -3.2570000000000002E-002
 C     112.42679583813899        115.89431994363994        108.65685400000000        1.9990000000000001E-002
 C     112.42922905873958        113.47127981506344        108.65685400000000        1.9990000000000001E-002
 C     119.54662119669224        113.47842711227207        108.65685400000000        1.9990000000000001E-002
 C     119.54418797502825        115.90146724295957        108.65685400000000        1.9990000000000001E-002
 C     120.95513502262406        113.52443508582239        108.65685400000000       0.22694000000000000     
 C     120.95279136225074        115.85828822957579        108.65685400000000       0.22694000000000000     
 C     111.02062567316109        113.51445882949257        108.65685400000000       0.22694000000000000     
 C     111.01828201314538        115.84831197227365        108.65685400000000       0.22694000000000000     
 O     121.58672646073950        114.69199707811771        108.65685400000000      -0.12278000000000000     
 O     110.38669057447160        114.68074997866444        108.65685400000000      -0.12278000000000000     
 O     121.60919604582404        116.88592214092635        108.65685400000000      -0.27689000000000002     
 O     121.61360228670014        112.49812156969473        108.65685400000000      -0.27689000000000002     
 O     110.35981475072747        116.87462548729631        108.65685400000000      -0.27689000000000002     
 O     110.36422099026049        112.48682491672973        108.65685400000000      -0.27689000000000002     
 H     112.59986682224265        111.31545480009331        108.65685400000000        8.6370000000000002E-002
 H     112.59310350059928        118.05048332120924        108.65685400000000        8.6370000000000002E-002
 H     119.38031353295187        111.32226373463131        108.65685400000000        8.6370000000000002E-002
 H     119.37355020714240        118.05729226038898        108.65685400000000        8.6370000000000002E-002
 H     114.96228657286689        111.26896056387957        108.65685400000000        5.6320000000000002E-002
 H     114.95542510868198        118.10172214614083        108.65685400000000        5.6320000000000002E-002
 H     117.01799192402153        111.27102490973930        108.65685400000000        5.6320000000000002E-002
 H     117.01113045753101        118.10378649058457        108.65685400000000        5.6320000000000002E-002
