          38
 lvs    232.00000000000000        0.0000000000000000        0.0000000000000000        0.0000000000000000        232.00000000000000        0.0000000000000000        0.0000000000000000        0.0000000000000000        232.00000000000000     
 C     113.13247695092055        115.97006557275925        108.64339875708197       -5.6899999999999997E-003
 C     118.84903730223770        116.01077870380099        108.67840646216659       -5.6899999999999997E-003
 C     117.45049588170005        116.03594600054805        108.70500488778309        1.2380000000000000E-002
 C     114.56311494883835        115.97699485282516        108.64889690988932        1.2380000000000000E-002
 C     116.68206603574887        114.73071571814339        108.63784486797968        1.6310000000000002E-002
 C     115.27744036349553        114.75090598134000        108.65946737262810        1.6310000000000002E-002
 C     115.24834464680110        117.19902498716127        108.63285678177354        1.6310000000000002E-002
 C     116.68157567485946        117.20744008002043        108.63983963343790        1.6310000000000002E-002
 C     114.56503925365783        113.59572857407558        108.70413633290045       -3.8425000000000001E-002
 C     117.49202699154368        113.58287491269839        108.68832750881234       -3.8425000000000001E-002
 C     114.47791824938068        118.38640035050079        108.62190869860777       -3.8425000000000001E-002
 C     117.44703633149237        118.41567703501606        108.64823022083716       -3.8425000000000001E-002
 C     113.15369580048478        113.58882912814663        108.68323854024904       -3.2570000000000002E-002
 C     113.11749139721117        118.39959735137181        108.65189658909750       -3.2570000000000002E-002
 C     118.83385007401660        113.55107414142064        108.63973584784856       -3.2570000000000002E-002
 C     118.89056834041880        118.45476503950297        108.70131656892252       -3.2570000000000002E-002
 C     112.43049988565362        117.19802399115457        108.66055804751463        1.9990000000000001E-002
 C     112.44607942814314        114.78813018446699        108.67370436940355        1.9990000000000001E-002
 C     119.58614441901237        114.81795033459220        108.69637722232012        1.9990000000000001E-002
 C     119.54382239609706        117.20110166402837        108.65648842106880        1.9990000000000001E-002
 C     120.93079928022995        114.80009934342827        108.63251825760588       0.22694000000000000     
 C     120.99577807709532        117.20127494442038        108.69984071484458       0.22694000000000000     
 C     111.04192537268189        114.83575852901336        108.67815369952079       0.22694000000000000     
 C     110.99980293372481        117.12983289285307        108.63837492057942       0.22694000000000000     
 O     121.61852234051737        116.02379295789558        108.68864987977787      -0.12278000000000000     
 O     110.37545187245803        115.96951127665086        108.64561529798642      -0.12278000000000000     
 O     121.60279756949828        118.17952366460059        108.65045552367424      -0.27689000000000002     
 O     121.58220878151381        113.76672806450840        108.62546049481367      -0.27689000000000002     
 O     110.38374136147580        118.19855209804464        108.68078061074833      -0.27689000000000002     
 O     110.33531938307218        113.75792330954141        108.62795239281168      -0.27689000000000002     
 H     112.56163575512790        112.57722373297855        108.61862293288524        8.6370000000000002E-002
 H     112.57409500336709        119.33147482397705        108.63784550276780        8.6370000000000002E-002
 H     119.41662187402139        112.65857207570082        108.69316234106951        8.6370000000000002E-002
 H     119.40913117293331        119.39287322617989        108.69243496579091        8.6370000000000002E-002
 H     114.94348358413281        112.55015757514549        108.63805101126592        5.6320000000000002E-002
 H     114.97013763375099        119.41643467120984        108.67156652506901        5.6320000000000002E-002
 H     117.03454444351932        112.58757742923709        108.67340651949779        5.6320000000000002E-002
 H     117.05246008300327        119.44511611605682        108.69818362547225        5.6320000000000002E-002
