          38
 lvs    232.00000000000000        0.0000000000000000        0.0000000000000000        0.0000000000000000        232.00000000000000        0.0000000000000000        0.0000000000000000        0.0000000000000000        232.00000000000000     
 C     113.12430191503178        115.96189053687048        108.63522372119320       -5.6899999999999997E-003
 C     118.82593629403478        115.98767769559807        108.65530545396366       -5.6899999999999997E-003
 C     117.42584022464716        116.01129034349516        108.68034923073020        1.2380000000000000E-002
 C     114.62058382369486        116.03446372768167        108.70636578474583        1.2380000000000000E-002
 C     116.73977748409219        114.78842716648670        108.69555631632299        1.6310000000000002E-002
 C     115.30345836551891        114.77692398336337        108.68548537465148        1.6310000000000002E-002
 C     115.22455792051392        117.17523826087408        108.60907005548636        1.6310000000000002E-002
 C     116.67457528124838        117.20043968640935        108.63283923982682        1.6310000000000002E-002
 C     114.53498246050398        113.56567178092173        108.67407953974660       -3.8425000000000001E-002
 C     117.44262807012618        113.53347599128088        108.63892858739483       -3.8425000000000001E-002
 C     114.46380854438091        118.37229064550102        108.60779899360800       -3.8425000000000001E-002
 C     117.47289006805758        118.44153077158127        108.67408395740237       -3.8425000000000001E-002
 C     113.15678862863346        113.59192195629531        108.68633136839772       -3.2570000000000002E-002
 C     113.09122983189437        118.37333578605501        108.62563502378070       -3.2570000000000002E-002
 C     118.87490198054260        113.59212604794665        108.68078775437456       -3.2570000000000002E-002
 C     118.88980789128345        118.45400459036763        108.70055611978718       -3.2570000000000002E-002
 C     112.46721265069216        117.23473675619312        108.69727081255317        1.9990000000000001E-002
 C     112.43189045760407        114.77394121392793        108.65951539886449        1.9990000000000001E-002
 C     119.59317520006009        114.82498111563991        108.70340800336784        1.9990000000000001E-002
 C     119.59086236704177        117.24814163497308        108.70352839201351        1.9990000000000001E-002
 C     120.93828473482375        114.80758479802208        108.64000371219969       0.22694000000000000     
 C     120.95989769476559        117.16539456209064        108.66396033251485       0.22694000000000000     
 C     110.99503146593703        114.78886462226851        108.63125979277594       0.22694000000000000     
 C     110.96906604773046        117.09909600685873        108.60763803458508       0.22694000000000000     
 O     121.55756655421408        115.96283717159227        108.62769409347456      -0.12278000000000000     
 O     110.40574368681962        115.99980309101245        108.67590711234801      -0.12278000000000000     
 O     121.62607343042427        118.20279952552659        108.67373138460023      -0.27689000000000002     
 O     121.62582312646322        113.81034240945780        108.66907483976307      -0.27689000000000002     
 O     110.31095160230618        118.12576233887502        108.60799085157871      -0.27689000000000002     
 O     110.38692933214310        113.80953325861233        108.67956234188260      -0.27689000000000002     
 H     112.55388348804296        112.56947146589361        108.61087066580031        8.6370000000000002E-002
 H     112.59276050293629        119.35014032354624        108.65651100233700        8.6370000000000002E-002
 H     119.42465619259202        112.66660639427145        108.70119665964015        8.6370000000000002E-002
 H     119.42317652690818        119.40691858015475        108.70648031976577        8.6370000000000002E-002
 H     114.93306173004825        112.53973572106094        108.62762915718136        5.6320000000000002E-002
 H     114.98940343295170        119.43570047041055        108.69083232426972        5.6320000000000002E-002
 H     116.99965536513736        112.55268835085512        108.63851744111582        5.6320000000000002E-002
 H     116.98347903637647        119.37613506943002        108.62920257884545        5.6320000000000002E-002
