          38
 lvs    232.00000000000000        0.0000000000000000        0.0000000000000000        0.0000000000000000        232.00000000000000        0.0000000000000000        0.0000000000000000        0.0000000000000000        232.00000000000000     
 C     113.14593219383858        114.88352081567729        108.65685400000000       -5.6899999999999997E-003
 C     118.82748484007111        114.88922624163440        108.65685400000000       -5.6899999999999997E-003
 C     117.40234499391696        114.88779511276496        108.65685400000000        1.2380000000000000E-002
 C     114.57107203894903        114.88495194293584        108.65685400000000        1.2380000000000000E-002
 C     116.70107516776919        113.64972485016371        108.65685400000000        1.6310000000000002E-002
 C     115.27482699086742        113.64829260871190        108.65685400000000        1.6310000000000002E-002
 C     115.27234186502756        116.12302220538773        108.65685400000000        1.6310000000000002E-002
 C     116.69859004142155        116.12445444658253        108.65685400000000        1.6310000000000002E-002
 C     114.51775692075738        112.44844624117513        108.65685400000000       -3.8425000000000001E-002
 C     117.46055348273134        112.45140140388605        108.65685400000000       -3.8425000000000001E-002
 C     114.51286355077291        117.32134565189303        108.65685400000000       -3.8425000000000001E-002
 C     117.45566011065520        117.32430081417890        108.65685400000000       -3.8425000000000001E-002
 C     113.12731126023574        112.46244458789759        108.65685400000000       -3.2570000000000002E-002
 C     113.12244880811366        117.30455476227431        108.65685400000000       -3.2570000000000002E-002
 C     118.85096822616804        112.46819229357209        108.65685400000000       -3.2570000000000002E-002
 C     118.84610577149627        117.31030247058045        108.65685400000000       -3.2570000000000002E-002
 C     112.42679583813899        116.09431994363995        108.65685400000000        1.9990000000000001E-002
 C     112.42922905873958        113.67127981506344        108.65685400000000        1.9990000000000001E-002
 C     119.54662119669224        113.67842711227208        108.65685400000000        1.9990000000000001E-002
 C     119.54418797502825        116.10146724295957        108.65685400000000        1.9990000000000001E-002
 C     120.95513502262406        113.72443508582239        108.65685400000000       0.22694000000000000     
 C     120.95279136225074        116.05828822957579        108.65685400000000       0.22694000000000000     
 C     111.02062567316109        113.71445882949257        108.65685400000000       0.22694000000000000     
 C     111.01828201314538        116.04831197227365        108.65685400000000       0.22694000000000000     
 O     121.58672646073950        114.89199707811771        108.65685400000000      -0.12278000000000000     
 O     110.38669057447160        114.88074997866444        108.65685400000000      -0.12278000000000000     
 O     121.60919604582404        117.08592214092636        108.65685400000000      -0.27689000000000002     
 O     121.61360228670014        112.69812156969473        108.65685400000000      -0.27689000000000002     
 O     110.35981475072747        117.07462548729632        108.65685400000000      -0.27689000000000002     
 O     110.36422099026049        112.68682491672973        108.65685400000000      -0.27689000000000002     
 H     112.59986682224265        111.51545480009331        108.65685400000000        8.6370000000000002E-002
 H     112.59310350059928        118.25048332120924        108.65685400000000        8.6370000000000002E-002
 H     119.38031353295187        111.52226373463131        108.65685400000000        8.6370000000000002E-002
 H     119.37355020714240        118.25729226038898        108.65685400000000        8.6370000000000002E-002
 H     114.96228657286689        111.46896056387958        108.65685400000000        5.6320000000000002E-002
 H     114.95542510868198        118.30172214614083        108.65685400000000        5.6320000000000002E-002
 H     117.01799192402153        111.47102490973930        108.65685400000000        5.6320000000000002E-002
 H     117.01113045753101        118.30378649058457        108.65685400000000        5.6320000000000002E-002
