          16

 N   -1.1919955044036472       -1.9688658165936261        4.6160833321319253E-003
 C   -2.3713921656734724       -1.3975160358840557        1.5456571551603375E-002
 N   -2.2980708223288375       -1.3360392642445040E-002   1.7898404865417866E-002
 C  -0.96663471055206940       0.31260607545779429        9.1767530872736754E-003
 C  -0.29682520999645856      -0.91490746208634299        0.0000000000000000     
 N  -0.45810290988256641        1.5738669085412100        1.3877787807814454E-016
 C   0.85602871945433989        1.5816093054108977        9.1932332686204803E-003
 C    1.1466471213949982      -0.91490746208634333        1.1102230246251564E-016
 N    1.6229967024797718       0.44432062073668566        5.6807854074055223E-003
 O    1.9513313501588692       -1.8276361684409905        3.2090344593444782E-003
 N    1.5259183111856240        2.7864528546432323        8.1650886997593278E-002
 H   -3.3275551579689413       -1.9173148810312293        2.2318189881852132E-002
 H   -3.0653865401282481       0.64714716339272660        2.6846225472125142E-002
 H    2.6349870410038698       0.51483405599875920        7.2386839588964330E-002
 H   0.91566373917372257        3.5763916214885159      -0.10757322765515411     
 H    2.4124074067706731        2.8424219878607779      -0.41147439403159275     
