          12

 C   0.41315335594565344       -1.2106097110273530       -9.7838404045091920E-016
 N  -0.98362504976307874       -1.2106097110273530        0.0000000000000000     
 N   0.95258426563753273        6.5324692120954111E-002   2.8159865245374061E-003
 C   -1.7443634568413235       -6.5008378662363725E-002  -3.4433180119808338E-005
 C   0.27207814906086725        1.3042535356257345        1.5747755312418149E-004
 H   -1.7828286216256739        2.0739902395571010       -5.9387296516746901E-004
 O   0.89625242194950849        2.3502724126705941       -1.5889657534757379E-003
 O    1.0689657512199671       -2.2338621648836332       -2.2191431764528591E-003
 H   -2.8247299740249732      -0.21959938111816285       -1.7480407213987803E-004
 H    1.9685845764057708       0.11088427275921622        3.1521120809773207E-003
 C   -1.1839970632421919        1.1664225804028359        0.0000000000000000     
 H   -1.4106200868307806       -2.1291502177109636       -2.4825228396853360E-003
