          14

 C   -2.5861230021361421       -1.5230141577039724E-002  -1.7619408960781180E-004
 C   -1.8967233419423168        1.2029082646000775        2.2204460492503131E-016
 O    2.2213881293374316        1.0998780242149406        1.6701983640528717E-002
 C  -0.50104828778544164        1.2192566754909278        8.7948666319453972E-004
 N    1.6615026782110580        9.7907551527537384E-003   1.5281386428590976E-003
 C  -0.48667031432765701       -1.2251321250550240       -5.5511151231257827E-017
 O    2.2342495081344014       -1.0736202228242004       -1.2959026048201872E-002
 C   0.17963359398437889        1.0523827777706579E-003   7.2451536423147160E-004
 H    6.7640189841272180E-002   2.1478847923626452        1.4799933559584977E-003
 H   -3.6782186523293268       -2.1632128035992571E-002  -4.4962903963421952E-004
 H    9.2866776029627784E-002  -2.1469835101858497       -2.8184631372446534E-004
 C   -1.8824568697019599       -1.2251321250550242        0.0000000000000000     
 H   -2.4221557512275433       -2.1741518488827283        1.0286912905216328E-004
 H   -2.4475307866036471        2.1455019660629135       -4.0313009157966206E-004
