8
#comment 
 H    1.616620628363   -0.376015933021    0.874644646866 0.4396041 
 O    0.404848437672    1.256758119834   -0.163895082874 -0.5775431
 O    0.787933894088   -0.851827595259    0.615777027348 -0.6493681 
 C    0.015666000335    0.112843623364   -0.024550749718 0.7588061
 C   -1.326543598392   -0.467275795785   -0.497760235299 -0.2775751
 H   -1.149840416842   -1.286573451298   -1.188994524848 0.1117881
 H   -1.882739855531   -0.849189943208    0.353786076084 0.1111101
 H   -1.905966555959    0.305401209039   -0.992063161184 0.0831781