5
#comment 
 N    0.046834365313   -0.026895405638   -0.641532465729   -0.67533 
 C    0.009311032385   -0.005594692695    0.630534790759    0.19058 
 H   -0.777334533639    0.451971424841    1.232055189007    0.04705 
 H    0.815846536426   -0.474166158266    1.192270061434    0.08114 
 H   -0.800109946375    0.462503967340   -1.018318196215    0.35656 
