9
#comment 
 O    0.974605671605    0.221950448197    0.550171751929 -0.1872631 
 C    0.111553409650    1.131363057430   -0.015905888429 -0.0423331 
 C   -0.936168195847    0.516477649557   -0.580791609552 -0.1929221 
 H    0.385160350090    2.174731867081    0.068536514804 0.1682341 
 H   -1.385742818733   -1.695797365463   -0.683322017077 0.1563421 
 C   -0.736685300769   -0.897475441172   -0.363741148646 -0.1740081 
 C    0.414062122015   -1.011640145021    0.312755150225 -0.0608881 
 H   -1.762961740371    0.978742562266   -1.094076329238 0.1592271 
 H    0.955810855099   -1.869236516114    0.689093311653 0.1736111 
