14
#comment 
 C    1.306348813170    0.274118693649    0.404700824273 0.3200741 
 C    0.484237332832    1.303441625814   -0.032429805935 -0.2960741 
 H    0.859075783088    2.318758813970   -0.057786098413 0.1781151 
 H   -1.450422087827    1.847394477988   -0.775501984239 0.1691811 
 O    2.624765607662    0.470528981932    0.825898446369 -0.5873701 
 O   -2.606941770979   -0.597251631462   -0.799959821141 -0.5818011 
 H   -0.870159283081   -2.306700092445    0.052654137133 0.1873841 
 H    1.457279762530   -1.831666662271    0.775958099219 0.1844851 
 C   -1.308355472167   -0.259538355140   -0.407862614601 0.2892171 
 C    0.810636802636   -1.034345928910    0.433758915733 -0.2143131 
 C   -0.816349954850    1.037990753407   -0.436628395244 -0.2562961 
 C   -0.479674639580   -1.297691522322    0.032789488513 -0.2131601 
 H    2.784777728192    1.441951354434    0.733170624244 0.4093751 
 H   -3.025837862782    0.255973125624   -1.072628965552 0.4111811 
