14
Model[1]: Jmol 16.1.47  2023-11-25 18:37
C      -4.48450      0.91389     -0.17704
C      -3.17186      1.69342     -0.09969
H      -1.88145      0.17211     -0.94999
H      -1.03815      1.40117      0.00220
H      -1.97084      0.13726      0.82048
H      -3.17403      2.32505      0.79094
H      -3.09113      2.36403     -0.96349
C      -1.94897      0.79415     -0.05636
C      -5.66876      1.86770     -0.15656
H      -6.61310      1.31295     -0.16065
H      -5.65218      2.49367      0.74425
H      -5.65881      2.52688     -1.02762
H      -4.51687      0.31261     -1.09536
H      -4.56271      0.21964      0.66394
