71

C	0.165	0.165	0.165	-0.0132352941
C	2.2987	1.39372	0.16643	-0.0132352941
C	4.4293	2.62743	0.16468	-0.0132352941
C	6.56208	3.85683	0.16431	-0.0132352941
C	8.69719	5.08888	0.16545	-0.0132352941
C	10.83174	6.32186	0.16487	-0.0132352941
C	2.29863	-1.06668	0.16445	-0.0132352941
C	4.43016	0.16415	0.16499	-0.0132352941
C	6.5639	1.39513	0.16469	-0.0132352941
C	8.69598	2.62341	0.1651	-0.0132352941
C	10.83364	3.85745	0.16497	-0.0132352941
C	12.9634	5.0896	0.16451	-0.0132352941
C	4.43024	-2.29713	0.16443	-0.0132352941
C	6.56097	-1.0666	0.16647	-0.0132352941
C	8.69598	0.15848	0.16406	-0.0132352941
C	10.82917	1.39705	0.16555	-0.0132352941
C	12.96875	2.62522	0.1658	-0.0132352941
C	15.09725	3.86194	0.16486	-0.0132352941
C	6.56402	-3.52838	0.16595	-0.0132352941
C	8.69593	-2.29218	0.16398	-0.0132352941
N	10.80717	-1.06699	0.16492	0.3
N	12.9742	0.18437	0.16464	0.3
C	15.09093	1.40025	0.16571	-0.0132352941
C	17.22761	2.62833	0.16442	-0.0132352941
C	8.6958	-4.75743	0.16541	-0.0132352941
C	10.82899	-3.53111	0.16548	-0.0132352941
N	12.97393	-2.31803	0.16501	0.3
C	15.09692	-1.06662	0.16467	-0.0132352941
C	17.22548	0.16756	0.16569	-0.0132352941
C	19.36005	1.39865	0.16487	-0.0132352941
C	10.83305	-5.99168	0.16521	-0.0132352941
C	12.96825	-4.75927	0.16496	-0.0132352941
C	15.09046	-3.53355	0.16496	-0.0132352941
C	17.22521	-2.30088	0.16503	-0.0132352941
C	19.35976	-1.06689	0.16474	-0.0132352941
C	21.49483	0.16594	0.16528	-0.0132352941
C	1.58723	0.16476	0.16539	-0.0132352941
C	3.71933	1.39559	0.16547	-0.0132352941
C	5.85277	2.62757	0.16414	-0.0132352941
C	7.98679	3.85576	0.1651	-0.0132352941
C	10.12101	5.08769	0.16497	-0.0132352941
C	12.25153	6.32169	0.16458	-0.0132352941
C	3.71994	-1.06648	0.16432	-0.0132352941
C	5.85253	0.16432	0.16569	-0.0132352941
C	7.98668	1.39415	0.16439	-0.0132352941
C	10.12349	2.61973	0.16553	-0.0132352941
C	12.25335	3.85752	0.16464	-0.0132352941
C	14.3857	5.09067	0.16427	-0.0132352941
C	5.85264	-2.2973	0.16596	-0.0132352941
C	7.98472	-1.06678	0.16484	-0.0132352941
C	10.12107	0.15961	0.16495	-0.0132352941
C	12.25535	1.39194	0.16502	-0.0132352941
C	14.38587	2.62898	0.16599	-0.0132352941
C	16.51764	3.86028	0.16375	-0.0132352941
C	7.98658	-3.52774	0.16529	-0.0132352941
C	10.12107	-2.2935	0.16469	-0.0132352941
C	14.37972	0.16591	0.16442	-0.0132352941
C	16.51606	1.39682	0.16514	-0.0132352941
C	18.65096	2.62803	0.16531	-0.0132352941
C	10.12318	-4.75383	0.16572	-0.0132352941
C	12.25503	-3.52576	0.16528	-0.0132352941
C	14.37952	-2.29909	0.16466	-0.0132352941
C	16.50905	-1.06663	0.16546	-0.0132352941
C	18.64744	0.16574	0.16472	-0.0132352941
C	20.78469	1.3993	0.16505	-0.0132352941
C	12.25281	-5.99166	0.16443	-0.0132352941
C	14.3853	-4.76242	0.16549	-0.0132352941
C	16.51556	-3.52994	0.16493	-0.0132352941
C	18.64732	-2.29915	0.16451	-0.0132352941
C	20.78381	-1.06709	0.16526	-0.0132352941
C	22.91809	0.16726	0.165	-0.0132352941

