16
lvs 64.0 0.0 0.0 0.0 64.0 0.0 0.0 0.0 64.0
 N    1.933508295076    1.207794980280   -0.012114772158   -0.46816 
 C    2.737308295076    0.162994980280   -0.017814772158    0.08097 
 N    2.044018295076   -1.020795019720   -0.022544772158   -0.27558 
 C    0.717488295076   -0.708115019720   -0.017494772158    0.17652 
 C    0.671158295076    0.664744980280   -0.011974772158    0.29363 
 N   -0.304011704924   -1.591625019720   -0.005224772158   -0.45020 
 C   -1.477791704924   -1.015765019720    0.017885227842    0.30449 
 C   -0.630171704924    1.291024980280   -0.001094772158    0.18392 
 N   -1.660751704924    0.355134980280    0.007685227842   -0.19239 
 O   -0.853811704924    2.497114980280    0.006665227842   -0.40983 
 N   -2.598381704924   -1.769095019720    0.060395227842   -0.61402 
 H    3.818738295076    0.196784980280   -0.017894772158    0.13055 
 H    2.431428295076   -1.953435019720   -0.023574772158    0.30517 
 H   -2.586731704924    0.745184980280    0.031495227842    0.26427 
 H   -2.481221704924   -2.769325019720   -0.049404772158    0.33624 
 H   -3.522691704924   -1.389655019720   -0.075084772158    0.33443 
