12
lvs 64.0 0.0 0.0 0.0 64.0 0.0 0.0 0.0 64.0
    N     -2.58206707      0.52952510      0.34332971      5.24892011
    C     -3.72427289     -0.30421064      0.12420923      4.04778939
    C     -1.28277098     -0.02633340      0.11832724      4.04779439
    N     -2.28106355     -2.13310263     -0.50747477      5.24892571
    H     -0.44380916      0.63753089      0.29563491      0.92510662
    C     -1.13886231     -1.29932841     -0.28846765      4.04779318
    H     -4.69011156      0.15423577      0.30583525      0.92510572
    H     -2.69019237      1.48609101      0.64871642      0.80527492
    C     -3.58036346     -1.57721224     -0.28258085      4.04780174
    H     -2.17296430     -3.08945130     -0.81355220      0.80527473
    H     -0.17301456     -1.75784496     -0.46987665      0.92510682
    H     -4.41931724     -2.24114975     -0.45964978      0.92510668
