41
lvs 12.0 -4.1    0.0  0.0  5.1    0.0  0.0  0.0   20.0
 C -4.617236 1.620103 1.878603          0.47 
 C -3.768763 0.456087 1.848957 	       -0.22 
 C 4.508354 0.734198 1.779589 		0.27 
 N 3.651018 1.927132 1.839935 	       -0.09 
 C 0.102550 3.160996 -0.034555 		0.0  
 C -0.269021 4.306566 -0.037186 	0.0  
 N 4.946027 0.215256 3.055692 	       -0.09 
 N -4.992846 2.291287 3.074121 	       -0.50 
 C -2.114283 1.109600 0.000000 	       -0.12 
 C -3.361282 -0.095779 3.089651        -0.115
 C -0.600311 0.715771 0.000000 		0.0  
 C 0.417022 1.651165 0.000000 		0.0  
 C 3.301694 2.524282 3.111424 		0.17 
 C 1.931560 1.237653 0.000000 	       -0.12 
 C 4.460552 0.714211 4.358918 		0.27 
 C -4.437325 1.757922 4.278112 		0.47 
 H 3.444745 2.454073 5.248907 		0.12 
 H -3.351219 0.145451 5.250601 		0.12 
 O 4.700817 -0.010824 5.452681 	       -0.44 
 N -4.600622 2.582185 5.470707 	       -0.70 
 H -4.368563 2.099548 6.355166 		0.33 
 H -5.028651 1.644279 -0.207863 	0.33 
 H -2.731589 -0.967249 3.090347 	0.115
 O 4.822668 0.159661 0.622408 	       -0.44 
 H 2.699597 3.415051 3.029653 		0.12 
 H -2.230248 2.011247 0.590070 		0.06 
 H -2.359636 1.366287 -1.026385 	0.06 
 H 2.042389 0.325512 0.573156 		0.06 
 H 2.187160 0.995447 -1.026286 		0.06 
 H 5.726837 -0.561753 3.052238 		0.27 
 H -5.471809 3.150006 5.511608 		0.33 
 C 2.982658 2.321907 0.488691 	       -0.12 
 C -3.155734 -0.002046 0.495127        -0.12 
 H 2.514404 3.293557 0.608135 		0.06 
 H 3.790013 2.387758 -0.229818 		0.06 
 H -3.922048 -0.115909 -0.256160 	0.06 
 H -2.651603 -0.952642 0.607525 	0.06 
 C 3.694485 1.976641 4.316474 	       -0.16 
 C -3.691699 0.549834 4.317368 	       -0.26 
 H -5.794323 2.954825 0.661625 		0.33 
 N -5.076300 2.210227 0.642818 	       -0.70 
