16
lvs 64.0 0.0 0.0 0.0 64.0 0.0 0.0 0.0 64.0
    C      4.68300798      2.85338759     -1.12534981      4.08847340
    C      0.82342413      1.44665063     -0.51297609      4.21638617
    H      1.74083207      4.17029764     -0.58384986      0.80947764
    C      3.71505815      3.79240068     -1.07622438      4.03546961
    C      2.03528651      2.11809584     -0.80721126      3.96628228
    H      3.96463044      4.85023560     -1.10173237      0.92685083
    C      1.13368201      0.08983371     -0.38932376      4.12958900
    H      0.50358709     -0.76131441     -0.16875161      0.91116174
    N      2.48817196     -0.06184748     -0.61666746      5.10135767
    C      3.03717165      1.16725496     -0.86041522      3.85920010
    H      2.99171934     -0.94011844     -0.59026295      0.80194124
    N      2.32325204      3.49848883     -1.08487303      5.23474183
    N      4.40822287      1.42994776     -1.17631534      5.26715093
    H      5.06686103      0.88617141     -0.60839397      0.81564489
    H      5.73272441      3.11950828     -1.19517064      0.92116034
    H     -0.15682938      1.88677354     -0.38467691      0.91511234
