18
lvs 64.0 0.0 0.0 0.0 64.0 0.0 0.0 0.0 64.0
    N      0.69358931      2.33426697     -0.21704713      5.26884200
    C      0.21551317      0.99170653     -0.39457812      4.05944518
    H      1.94909558      4.41651177     -1.09468509      0.81548455
    C      3.93962160      3.88232534     -1.10804079      4.05936304
    C      2.11481044      2.46224927     -0.45424544      3.86908727
    H      4.26382252      4.86476717     -1.43714686      0.92172349
    C      1.03892668     -0.07130583     -0.40189484      4.05939879
    H      0.66627581     -1.08885025     -0.46761850      0.92168220
    N      2.45958370      0.05475161     -0.23375510      5.26888691
    C      2.93685362      1.40107128     -0.46231926      3.86903200
    H      2.98560907     -0.63742111     -0.77545939      0.81546400
    N      2.60421045      3.81742367     -0.58361717      5.26889002
    N      4.37027069      1.53769898     -0.60068813      5.26891731
    H      0.15123149      3.02134282     -0.74907964      0.81548505
    H      5.79349107      2.89089584     -1.45042563      0.92169187
    C      4.76315747      2.81942367     -1.11584906      4.05942077
    H      4.78261120      0.75812876     -1.12186079      0.81548604
    H     -0.86318383      0.88522357     -0.45405922      0.92169950
