18
lvs 64.0 0.0 0.0 0.0 64.0 0.0 0.0 0.0 64.0
    C     -2.25898396     -0.07737346      0.08228811      3.75740331
    C     -3.64040844      0.02127610      0.08612992      4.22758103
    C     -3.36038296      2.49535677      0.04022052      3.99670767
    C     -4.23596754      1.31234780      0.06471107      3.95315317
    C     -1.99028037      2.33092108      0.04690583      4.02092531
    H     -6.44423772      1.15192542      0.07099633      0.92591375
    H     -6.39725142      3.82797785      0.01585718      0.93876760
    N     -1.55399048     -1.29890783      0.16035911      5.41922102
    N     -1.47203602      1.05733107      0.07339563      5.11416786
    H     -3.87421673      4.67857151     -0.00442529      0.92704960
    C     -5.51668715      3.19024871      0.02768815      4.04969536
    H     -1.26397462      3.14185207      0.03326850      0.91874506
    H     -4.23486844     -0.88772672      0.10335576      0.91632996
    C     -5.55139718      1.76665580      0.05662742      4.22350129
    C     -4.20478791      3.64612173      0.01671671      4.22380676
    H     -0.46549006      0.92409897      0.09144884      0.79590880
    H     -2.11458000     -2.10780873     -0.08719890      0.78834283
    H     -0.65892075     -1.30674529     -0.31942158      0.80277962
