16
lvs 64.0 0.0 0.0 0.0 64.0 0.0 0.0 0.0 64.0
    C      0.32829263      2.02681717     -0.65648216      4.12021422
    C     -0.28473025      0.74922184     -0.44505045      4.12021929
    H     -0.20113757      2.95797088     -0.83522078      0.93956150
    C      1.98102439      0.48271623     -0.34048030      4.13655744
    C      1.69571006      1.87544630     -0.59517010      4.16360592
    H     -1.35339198      0.55639945     -0.43805362      0.93955985
    C      0.70525970     -0.18866438     -0.25327360      4.16360494
    H      2.43747524      2.66117205     -0.71560394      0.95133533
    H      0.56076382     -1.25031998     -0.06862671      0.95134073
    C      3.24544036     -0.10174899     -0.20569889      3.63887437
    N      3.41410041     -1.44269569      0.03838977      5.37975082
    N      4.40654709      0.62462453     -0.30747268      5.37974365
    H      4.33802102     -1.83619593      0.12904257      0.78911998
    H      2.60940508     -2.04534073      0.12722725      0.76869235
    H      4.36781637      1.61681389     -0.48818194      0.76869573
    H      5.30386042      0.17568054     -0.20768250      0.78912387
