20
lvs 64.0 0.0 0.0 0.0 64.0 0.0 0.0 0.0 64.0
    C      3.23698897      1.00476709      0.07768811      3.85122222
    H      5.56021876      4.69041949     -1.45893016      0.80644561
    C      4.53069728      1.34949149      0.19303489      3.90021982
    C      2.74953490      3.16634181     -0.88559506      4.22639911
    N      2.21190433      1.94455695     -0.28058424      5.27381413
    N      4.98862562      2.70465065     -0.03573467      5.29148730
    N      5.54358889      0.42451182      0.66847627      5.26796652
    C      4.04941815      3.51307006     -0.74053595      3.74705930
    N      2.77122592     -0.32067628      0.41334850      5.26740243
    H      4.02343133      5.19847032     -1.90722267      0.80335113
    C      5.11771300     -0.94534650      0.60065011      4.06114508
    N      4.58200607      4.74205839     -1.19350821      5.41582506
    C      3.82398838     -1.29288015      0.48130702      4.06012981
    H      6.44404274      0.57659291      0.20285755      0.81910123
    H      1.98769457     -0.61778473     -0.17455628      0.81485431
    H      5.90409423     -1.68422681      0.72031303      0.92323464
    H      3.50163300     -2.32955754      0.49939771      0.92285506
    H      2.01773715      3.83461995     -1.32236110      0.91248414
    H      5.92719018      2.74532130     -0.44187668      0.81539436
    H      1.50701802      1.50945415     -0.88635596      0.81960873
