16
lvs 64.0 0.0 0.0 0.0 64.0 0.0 0.0 0.0 64.0
    C      2.58722588      0.78006394      0.25672438      4.09855215
    H      0.65666851      1.87916213      0.64746742      0.90442478
    C      3.75690783      1.25237135     -0.35832351      3.78581595
    C      2.29640006      2.94515960     -0.34890735      4.08332582
    C      1.66393205      1.87851640      0.25324085      4.16526284
    H      5.71553789      0.83688648     -0.98756205      0.77938547
    N      4.87806162      0.47622676     -0.53950001      5.22481900
    N      3.58147958      2.55596082     -0.72282425      5.13112567
    C      2.56423324     -0.57619092      0.71667825      4.03802566
    O      5.92712991     -1.53406575     -0.28241529      6.56408236
    C      4.89648169     -0.87049358     -0.09913422      3.48043965
    C      3.67021403     -1.36130894      0.54454130      4.23374499
    H      1.94806237      3.95016184     -0.54645639      0.90243807
    H      3.67368570     -2.39241493      0.88611907      0.89820403
    H      1.67016259     -0.97050039      1.19807703      0.91971627
    H      4.26226147      3.14677283     -1.18561659      0.79063727
