15
lvs 64.0 0.0 0.0 0.0 64.0 0.0 0.0 0.0 64.0
    C      2.62908874      0.70824794      0.06871680      4.00730155
    H      5.78739705      0.81456836     -1.08409510      0.78435282
    C      3.84185035      1.21498427     -0.55364356      3.72192320
    C      2.41662178      2.81667084     -0.66955516      3.91988884
    C      1.71769807      1.79269546     -0.02870707      4.25321806
    H      2.04166267      3.80417646     -0.91817600      0.91734430
    N      4.95269692      0.43379599     -0.64328311      5.04641853
    N      3.71311938      2.47883402     -0.99570961      5.44577519
    C      2.63330773     -0.59278653      0.56932739      4.06601470
    H      5.87628313     -1.40310640     -0.25931504      0.91929761
    C      4.95312249     -0.83722940     -0.15283402      4.02239491
    H      0.69366737      1.81762161      0.32217446      0.91407539
    C      3.80966534     -1.35878996      0.45099281      4.14630855
    H      3.84306507     -2.37527321      0.83169635      0.91728058
    H      1.75482625     -1.02507024      1.04536343      0.91840575
