19
lvs 64.0 0.0 0.0 0.0 64.0 0.0 0.0 0.0 64.0
    C     -2.22249721      1.50731420      0.25454018      3.64247888
    C     -3.59440811      1.56000674      0.02245374      4.31248593
    C     -3.52842517     -0.89959165     -0.07213714      4.12735931
    C     -4.27572316      0.31852831     -0.15074464      3.95123548
    C     -2.11560504     -0.83011000      0.16780471      3.62686178
    H     -1.84060302      3.52845617      0.08342407      0.80763490
    H     -0.48195046      2.53326912      0.34038390      0.79034725
    N     -1.47518667      2.66981453      0.47735960      5.40777844
    N     -1.48177485      0.34017132      0.32558486      5.48069195
    H     -1.70268510     -2.82565271     -0.15979295      0.80437159
    N     -5.66229418     -1.40719782     -0.46410487      5.01779562
    N     -1.35234992     -1.98779339      0.28660630      5.39655183
    H     -4.11809377      2.51050001     -0.02590241      0.92587242
    C     -5.61336389     -0.03537049     -0.39805381      4.16561315
    C     -4.43512781     -1.96340785     -0.27636947      4.12134012
    H     -0.35502866     -1.83672059      0.20668078      0.78496834
    H     -4.29576245     -3.03876500     -0.28866318      0.92053287
    H     -6.50549001      0.56499436     -0.52561446      0.91187079
    H     -6.50953954     -1.93868916     -0.63118279      0.80420936
