18
lvs 64.0 0.0 0.0 0.0 64.0 0.0 0.0 0.0 64.0
    C      3.15204094      0.88809186      0.00622319      4.06052015
    H      5.45810338      4.80608823     -1.20831505      0.77346596
    C      4.54537704      1.22862174     -0.10126284      3.62810408
    C      2.61233248      3.13653345     -0.69001968      4.20448168
    C      2.18940244      1.89016552     -0.30311777      4.04839254
    N      4.95937577      2.47722148     -0.48852268      5.42439389
    N      5.52705328      0.30701936      0.18255487      5.32355233
    C      4.02227346      3.39721098     -0.77246388      3.62639150
    C      2.80543078     -0.42268167      0.41292231      4.05352841
    H      3.82158102      5.38738130     -1.38637421      0.79342075
    C      5.16029157     -0.91362315      0.56109563      3.89690456
    H      3.57545378     -2.34211906      1.00635976      0.92561687
    C      3.80916742     -1.32741269      0.69157498      4.14678355
    N      4.46359569      4.64343691     -1.16024667      5.38139387
    H      1.90333786      3.92507665     -0.93366602      0.92233376
    H      1.12637422      1.65953722     -0.23038757      0.92711679
    H      1.75478753     -0.70161311      0.50109465      0.93084445
    H      5.96317706     -1.62590734      0.78018706      0.93275485
