17
lvs 64.0 0.0 0.0 0.0 64.0 0.0 0.0 0.0 64.0
    C      3.10410679      0.86006066      0.01947584      4.03157160
    H      1.87557406      3.92739879     -0.84025945      0.90283041
    C      4.50032619      1.20748151     -0.19580642      3.67584241
    C      2.58458205      3.12496859     -0.64473098      4.15880882
    C      2.14524373      1.91165573     -0.23451337      4.08977613
    N      4.96987221      2.37936472     -0.59551028      5.49205706
    N      5.43736215      0.20678448      0.04256812      5.10588657
    C      4.03749154      3.41574716     -0.84493639      3.43513889
    C      2.77961091     -0.41812995      0.44251534      4.05543660
    H      1.73690422     -0.68509567      0.60604868      0.91439183
    C      5.11151213     -1.04696259      0.45808544      3.95936168
    H      1.08489355      1.69959889     -0.08837625      0.92210682
    C      3.79056858     -1.38852510      0.66683005      4.16437871
    O      4.41001188      4.53300728     -1.21850293      6.50788300
    H      3.53587618     -2.38916740      0.99842560      0.90662832
    H      6.40496009      0.47576955     -0.11598223      0.76631310
    H      5.93677893     -1.73986142      0.60980236      0.91158806
