42
lvs 11.5 -0.5    0.0  0.0  4.9    0.0  0.0  0.0   20.0
 C -3.878099 -0.935772 -0.955696          0.19 
 C -3.021304 0.157333 -0.724125 	 -0.115
 C 4.564734 4.704559 -1.371618 		 -0.24 
 C 3.745369 3.665765 -1.680785 		 -0.24 
 C 0.414155 3.594137 -0.397343 		  0.0  
 C 0.291506 4.644953 0.177631 		  0.0  
 N 5.006465 4.925511 0.015777 		 -0.18 
 N -4.354336 -1.805449 0.057939 	 -0.55 
 C -1.466239 1.576746 0.813789 		 -0.12 
 C -2.518585 0.430409 0.604243 		 -0.27 
 C -0.058151 1.230966 0.241362 		  0.0  
 C 0.728214 2.112875 -0.484841 		  0.0  
 N 3.358729 2.627274 -0.696705 		 -0.18 
 C 2.124268 1.725689 -1.047989 		 -0.12 
 C 4.403310 4.158975 1.085061 		  0.36 
 C -3.886024 -1.497103 1.353792 	  0.36 
 C 3.609502 2.991254 0.763902 		  0.17 
 C -2.954539 -0.426939 1.665648 	  0.17 
 N 4.676723 4.612197 2.393085 		 -0.55 
 N -4.334621 -2.370989 2.421223 	 -0.18 
 C 3.123797 2.230688 1.856333 		 -0.115
 N -2.326329 -0.344176 3.054332 	 -0.18 
 C 4.145425 3.814058 3.436852 		  0.19 
 C 3.403532 2.649192 3.207450 		 -0.115
 C -3.647834 -2.359677 3.723628 	 -0.24 
 C -2.758343 -1.368036 4.017940 	 -0.24 
 H -4.228672 -1.157968 -1.951882 	  0.08 
 H -2.710885 0.775930 -1.544363 	  0.115
 H 4.948841 5.395395 -2.095130 		  0.16 
 H 3.432572 3.476937 -2.689613 		  0.16 
 H -1.347978 1.786112 1.867090 		  0.06 
 H -1.790030 2.476788 0.312818 		  0.06 
 H 2.348978 0.735077 -0.684440 		  0.06 
 H 2.086534 1.711346 -2.130010 		  0.06 
 H 2.512510 1.367455 1.697366 		  0.115
 H -2.382325 0.637949 3.448338 		  0.27 
 H 4.371731 4.153577 4.435687 		  0.08 
 H 3.049204 2.059114 4.031297 		  0.115
 H -4.005282 -3.083052 4.432185 	  0.16 
 H -2.274118 -1.304631 4.976091 	  0.16 
 H 5.456000 5.835324 0.229903 		  0.27 
 H -4.971563 -3.158665 2.198333 	  0.27 
