15
lvs 64.0 0.0 0.0 0.0 64.0 0.0 0.0 0.0 64.0
    N      2.59377122      0.78347064      0.23389425      4.97141875
    H      1.66167590     -0.77232725      1.30774437      0.90992098
    C      3.67694747      1.24593057     -0.49045595      3.61866901
    C      2.27168345      2.87384477     -0.41192018      3.98611664
    C      1.68151955      1.83799831      0.28567744      4.16637066
    H      5.54600039      0.75898465     -1.24160034      0.75759416
    N      4.75295394      0.41286583     -0.70897809      5.24191070
    N      3.51660345      2.50907747     -0.89823295      5.43210529
    C      2.55732264     -0.49632010      0.75036311      3.96548030
    O      5.79201570     -1.60551250     -0.44028645      6.53732717
    C      4.80059117     -0.90483840     -0.21698541      3.47843906
    C      3.61041267     -1.33484859      0.54849929      4.25860189
    H      3.59273078     -2.34141770      0.95074464      0.88154327
    H      1.87873919      3.86291035     -0.59510227      0.89392715
    H      0.73300764      1.74828611      0.79863325      0.90057494
