16
lvs 64.0 0.0 0.0 0.0 64.0 0.0 0.0 0.0 64.0
    C      2.10376880      1.63037485     -0.06463465      3.47317806
    C      3.58661914      1.65516647     -0.19140122      4.14371832
    C      3.61246668     -0.79756748      0.05387687      4.12413676
    C      4.28559111      0.49364179     -0.13049674      3.93710674
    C      2.14303031     -0.86368826      0.17634354      3.47016783
    H      0.47665909      0.38016122      0.19478177      0.75452019
    C      5.72051803      0.20755888     -0.21518324      4.12044012
    O      1.41049384      2.65049623     -0.10710274      6.49005844
    N      1.49124546      0.38378059      0.11081060      5.28967766
    C      4.57357353     -1.76959180      0.07695555      4.03419986
    C      5.88098460     -1.13699119     -0.09006881      4.07304753
    O      1.47853626     -1.89023442      0.32551846      6.49853549
    H      4.07178569      2.61886991     -0.32906995      0.88538278
    H      4.39938615     -2.83344452      0.19911241      0.89633581
    H      6.49959442      0.94904810     -0.35151909      0.90167331
    H      6.82538318     -1.67141475     -0.10882222      0.90782111
