39
lvs 12.5  0.0    0.0  0.0  5.1    0.0  0.0  0.0   20.0
C                 -3.57748908    0.34275909    2.53493339             -0.10
C                  4.24434392    2.02809509    2.41468539	       0.29
C                  0.48574492    3.12873709   -0.14311661	       0.0 
C                  0.06623492    4.26584509   -0.10450861	       0.0 
N                  5.18901592    1.66714309    3.44413239	      -0.59
C                 -1.74231008    1.18259109   -0.06572261	      -0.12
C                 -0.24386708    0.69287409   -0.09984361	       0.0 
C                  0.80399692    1.59802909   -0.13618761	       0.0 
C                  2.29559392    1.08959109   -0.06572261	      -0.12
C                  4.58983592    1.86219609    4.74737639	       0.84
C                 -3.91700608    0.67225109    4.71674739	       0.18
H                  2.53777392    2.62608309    5.26304339	       0.15
H                 -1.71195008    0.39537709    5.33045539	       0.15
O                  5.23591692    1.57950709    5.91723039	      -0.40
N                 -4.58898908    0.94918109    5.91548039	      -0.76
H                 -4.04265408    1.04709209    6.78753639	       0.35
H                 -1.31194508   -0.04545891    2.71628039	       0.15
H                  2.15305392    2.81814209    2.61528639	       0.13
H                 -1.87062808    1.83797809    0.78296439	       0.06
H                 -1.93019508    1.76594909   -0.95879561	       0.06
H                  2.37749892    0.51369209    0.84579739	       0.06
H                  2.46751992    0.41671309   -0.89664761	       0.06
H                 -5.60627763    1.16220368    5.98386126	       0.35
C                  3.43994192    2.21470909   -0.07206061	      -0.12
C                 -2.83998408    0.02577909    0.04036039	      -0.12
H                  2.99466992    3.17805709    0.14232839	       0.06
H                  3.91393992    2.24959609   -1.03921361	       0.06
H                 -3.41679908   -0.03513391   -0.87390461	       0.06
H                 -2.35438208   -0.92618791    0.23490039	       0.06
C                  3.23842392    2.37421309    4.49252639	      -0.33
C                 -2.44884908    0.40882109    4.54977139	      -0.34
C                 -2.24147608    0.18615409    3.19877839	      -0.25
C                  3.04652492    2.47684809    3.10120639	      -0.15
O                  5.78056192    1.41909909    0.58529139	      -0.35
N                 -3.87082108    0.28559909    1.15501739	      -0.10
C                  4.57185492    1.88226109    0.99055039	       0.41
H                 -4.85792308    0.52498009    0.87950539	       0.23
N                 -4.59604708    0.61440609    3.47544239	      -0.13
H                 -5.62828227    0.84477195    3.15193336	       0.27
