29
lvs  9.5  8.8    0.0  0.0  5.1    0.0  0.0  0.0   20.0
 C -3.186959 -1.052773 -0.177172          -0.31  
 C 3.734253 3.844840 0.243195 		   0.25	 
 C 0.461634 3.367910 -0.673075 		   0.0	 
 C 0.182322 4.530321 -0.672741 		   0.0	 
 N 4.154752 4.633003 1.283428 		  -0.60	 
 H -4.171038 -2.678375 1.047851 	   0.28	 
 C -1.730127 1.069294 -0.746018 	  -0.12	 
 C -2.414018 0.055583 0.229468 		  -0.03	 
 C -0.181811 0.900512 -0.674006 	   0.0	 
 C 0.761417 1.891757 -0.579288 		   0.0	 
 C 2.896973 2.658532 0.664409 		   0.01	 
 C 2.281717 1.634469 -0.336538 		  -0.12	 
 C 3.570842 3.946741 2.499048 		   0.80	 
 C -3.013723 -1.141618 2.134944 	   0.21	 
 C 2.823086 2.703780 2.043602 		  -0.29	 
 C -2.318705 0.019275 1.680284 		  -0.30	 
 O 3.696863 4.425154 3.736354 		  -0.39	 
 N -3.143600 -1.739543 3.456610 	  -0.74	 
 H 2.336028 2.025659 2.719380 		   0.13	 
 H -1.808109 0.733231 2.295247 		   0.14	 
 H -3.067778 -1.073724 4.247026 	   0.35	 
 H -3.491957 -1.365850 -1.154932 	   0.17	 
 H 3.958268 4.089338 -0.784176 		   0.09	 
 H -1.959254 2.101838 -0.509877 	   0.06	 
 H -2.058235 0.838540 -1.752241 	   0.06	 
 H 2.372546 0.632301 0.045174 		   0.06	 
 H 2.803951 1.718826 -1.281146 		   0.06	 
 H -3.938706 -2.404665 3.550732 	   0.35	 
 N -3.543331 -1.828161 0.999809 	  -0.12	 
