6

C      0.0437812793     -0.1807426228      0.0000000000       0.000000
N      0.0371781688      1.2842425398      0.0000000000       0.000000
O     -1.0143268872     -0.7980206167      0.0000000000       0.400000
H      0.9945376753     -0.7239619495      0.0000000000       0.000000
H     -0.8475888427      1.7897604143      0.0000000000       0.000000
H      0.9173526073      1.7977150021      0.0000000000       0.000000