24

  O       -0.66790        1.15870        0.25700
  O       -0.88700       -2.44830       -0.33880
  O        1.86230       -2.06930        0.46960
  O        2.86090        0.54140       -0.46190
  O        1.12220        2.65520        0.25740
  O       -3.37420        0.97170       -0.18650
  C       -0.37270       -1.24700        0.23000
  C        1.08560       -1.07090       -0.19400
  C       -1.22110       -0.06210       -0.23750
  C        1.60820        0.31510        0.18390
  C        0.63880        1.41320       -0.25340
  C       -2.65500       -0.15770        0.27400
  H       -0.42480       -1.35220        1.32060
  H        1.20660       -1.24870       -1.26970
  H       -1.25480       -0.00980       -1.33430
  H        1.79520        0.35980        1.26360
  H        0.59670        1.51410       -1.34400
  H       -2.69160       -0.15350        1.36850
  H       -3.15640       -1.05810       -0.09220
  H       -0.85140       -2.36150       -1.30660
  H        1.49730       -2.93560        0.22000
  H        2.71650        0.49890       -1.42270
  H        1.48760        2.50330        1.14480
  H       -2.91920        1.76520        0.14400
