16

N 4.239756 -3.508322 -4.987412 0.000000
C 3.011682 -2.947054 -4.377351 0.000000
H 2.142487 -3.289585 -4.945335 0.000000
C 3.030521 -1.395765 -4.344683 0.000000
H 2.917662 -3.320377 -3.353610 0.000000
N 4.249378 -0.842176 -4.978371 0.000000
H 2.985911 -1.062308 -3.303942 0.000000
H 2.149011 -1.009943 -4.863834 0.000000
H 5.578055 -1.038890 -3.349952 0.000000
C 5.478445 -1.408392 -4.374479 0.000000
H 4.254374 -3.267539 -5.976381 0.000000
H 6.345748 -1.065856 -4.945316 0.000000
H 6.340326 -3.345706 -4.863718 0.000000
C 5.457190 -2.959866 -4.347405 0.000000
H 5.496056 -3.296921 -3.307596 0.000000
H 4.234744 -1.073683 -5.969571 0.000000
