20
Model[1]: Jmol 16.1.47  2023-11-25 18:37
C      -3.93454     -1.49546     -4.42685
C      -3.20050     -0.49935     -3.48636
C      -2.44496     -1.27964     -2.38590
C      -1.96845     -0.55318     -1.07633
C      -0.53504      0.02157     -0.90360
C      -0.29861      1.53531     -0.95633
O      -5.09458     -0.93865     -4.99149
O      -3.10523     -1.97893     -5.43666
O      -1.07606      2.15202      0.03668
O       1.05927      1.76354     -0.67266
H      -5.81410     -1.58573     -4.75547
H      -2.55114      0.20276     -4.06235
H      -3.98085      0.08974     -2.96505
H      -1.61984     -1.90852     -2.81807
H      -3.21494     -1.98655     -2.02391
H      -2.74975      0.11123     -0.63587
H      -1.91875     -1.42424     -0.38631
H       0.18905     -0.52146     -1.54510
H      -0.23294     -0.19380      0.14678
H       1.19206      2.73140     -0.52774
