58
#
H     -0.99054    2.23918    2.19039
H      1.61370    2.39578    5.27711
H     -0.75739    4.75951    1.87877
H      1.86541    4.89293    4.94154
H     -1.46936   -2.78711    2.89995
H      1.07370   -2.55568    6.03219
H      0.79249   -5.04181    6.44711
H      1.34789   -0.08190    5.63810
H      1.09860    0.79531    2.68119
H     -0.45910    7.03357    2.85484
H      1.97643    6.87040    3.43322
H     -2.42932    0.03306    3.83435
H     -0.21926    6.32331    4.49277
H      1.56817    5.83977    2.01290
C     -1.35086   -6.29564    5.19825
H      2.28492   -2.89391    4.73903
H     -2.68581   -2.45750    4.19102
H      3.04302    4.61260    3.60567
H     -2.18247    2.52924    3.51360
H      0.85593   -1.71702    3.06055
H     -1.93571    5.04571    3.21326
H      2.79945    2.09581    3.95126
H      2.54601   -0.40213    4.32837
H     -1.22382   -0.27619    2.52804
H     -0.47434    3.80584    4.80900
H      1.33425    3.30927    2.33490
C      0.42709   -4.01864    4.54998
C     -1.09273   -3.81770    4.78821
C      1.20163   -2.74567    4.94272
C     -1.60155   -2.60261    3.98995
C      0.68826   -1.52921    4.14618
C     -0.82914   -1.33314    4.39825
C      1.46454   -0.25868    4.54511
C     -1.34655   -0.10758    3.62152
C      0.94158    0.96777    3.77107
C     -0.57354    1.15745    4.04105
C      1.71999    2.23389    4.18087
C     -1.10191    2.39303    3.28738
C      1.18721    3.46866    3.42828
C     -0.32601    3.65347    3.71477
C      1.96415    4.73390    3.84458
C     -0.85915    4.89833    2.97813
C      1.41924    5.96532    3.10822
C     -0.07499    6.14709    3.40360
H     -0.73172    1.32228    5.13200
H     -0.99822   -1.15230    5.48498
C      0.92961   -5.23177    5.35885
C      0.15274   -6.49623    4.96685
H      0.33499   -6.72467    3.89375
H     -1.53942   -6.12218    6.28081
H     -1.26961   -3.62311    5.87124
C     -1.86190   -5.09370    4.39201
H      2.01251   -5.39452    5.16775
H      0.60323   -4.21684    3.46752
H     -1.90073   -7.21145    4.89234
H      0.51130   -7.35670    5.57153
H     -1.72523   -5.29533    3.30610
H     -2.94787   -4.95902    4.58754
