       2
lvs        32.000000000000000        0.000000000000000        0.000000000000000        0.000000000000000       32.000000000000000        0.000000000000000        0.000000000000000        0.000000000000000       60.000000000000000
 N    0.0000000000000000        0.0000000000000000        5.6568540000000000      -0.40000000000000002     
 N    0.0000000000000000        0.0000000000000000        6.7568540000000006       0.40000000000000002     
