139
XYZ file generated by Avogadro.
C     -3.17910    3.57340    0.24820
C     -3.20380    2.16900    0.19180
N      0.41800    4.15960    0.30070
C      0.39100    1.40500    0.19770
C     -0.83000    3.51070    0.27200
C      1.62210    3.47290    0.26890
N     -1.99550    4.23350    0.28190
C     -2.01370    1.44380    0.17480
C     -0.81280    2.12230    0.21650
C      1.67710    2.11190    0.22120
N      2.82880    4.12250    0.27730
C      2.96490    1.36810    0.18660
N      4.13430    2.12490    0.21330
C      3.99420    3.41740    0.25470
C     -4.40100    1.47680    0.12960
C     -5.52820    3.57530    0.22160
C     -5.59560    2.18800    0.14330
N     -4.34670    4.25680    0.27010
N     -6.76460    4.25570    0.24880
C     -8.08120    2.24710    0.08580
C     -6.79840    1.50410    0.07490
C     -7.99090    3.60450    0.17630
C     -9.38850    1.53580   -0.00650
C    -10.37330    3.60640    0.11170
N    -10.54050    2.32230    0.01460
N     -9.18630    4.27930    0.18770
N      2.75340   -2.75170   -0.01040
H     -6.83240   -3.63580   -0.28600
H      5.93280   14.78420    1.57830
H      2.82090    5.13990    0.37060
H      0.26990   -3.74030   -0.06390
H     -6.71530    5.26570    0.32030
N      4.10370   -0.78520    0.09750
H      0.43860    5.17580    0.32880
H      7.06960    9.09400    1.29780
H    -11.33640   -2.51650   -0.41890
H      2.72910   -3.75930   -0.04880
H      4.81370   -2.74440    0.00670
H     -9.27950   -3.58490   -0.40550
H      7.09760   11.55910    1.42770
H     -9.16210    5.28840    0.29230
H    -11.24450    4.28340    0.13960
H      4.88110    4.06840    0.27320
H      5.88310    5.90790    1.06180
C     -3.26310   -2.06240   -0.02640
C     -3.23740   -0.66590    0.04600
N     -6.86180   -2.63210   -0.18870
C     -6.83620    0.11570   -0.01040
C     -5.61420   -1.99150   -0.09480
C     -8.07030   -1.94490   -0.20280
N     -4.46220   -2.70640   -0.08270
C     -4.42880    0.07020    0.05700
C     -5.63460   -0.60140   -0.01210
C     -8.12320   -0.58650   -0.10630
N     -9.27940   -2.58210   -0.31060
C     -9.40920    0.16700   -0.11100
N    -10.58050   -0.58340   -0.22510
C    -10.44860   -1.86450   -0.31900
C     -2.03270    0.03510    0.10370
C     -0.90730   -2.05190    0.01060
C     -0.84350   -0.66840    0.08620
N     -2.08400   -2.72680   -0.04440
N      0.32900   -2.73420   -0.01860
C      1.64290   -0.72090    0.09390
C      0.36690    0.01590    0.13750
C      1.55620   -2.08050    0.02170
C      2.95130   -0.00470    0.12920
C      3.93950   -2.07150    0.03300
O     -2.05850    6.85330    0.36900
C     -0.87250    7.48050    0.57230
O      0.20210    6.94660    0.40830
C     -0.76450   11.29240    1.13540
C      0.19120   12.45800    0.98930
H     -2.14240    9.17150    0.70420
C     -0.14870    9.92970    0.80950
C     -1.17770    8.85340    1.12110
H      0.16140    9.88640   -0.24240
H     -1.90750    5.88900    0.20190
H      0.74230    9.76340    1.42000
H     -1.30020    8.75490    2.20640
H     -1.14480   11.28160    2.16410
H     -1.62380   11.46030    0.47610
H      0.94890   12.43350    1.77530
H      0.68140   12.45920    0.01140
H     -0.35330   13.40070    1.10230
C     -3.22790   -6.41720   -0.71140
C     -3.24730   -7.77480   -0.76230
N     -2.07110   -5.68770   -0.66460
C     -1.99880   -8.53910   -0.77190
C     -4.51400   -8.50540   -0.81690
N     -4.36640   -5.65090   -0.70920
C     -3.30180  -11.96460   -0.99900
C     -3.28370  -10.60820   -0.91550
N     -4.45520  -12.70860   -1.05560
C     -4.53270   -9.84060   -0.88610
C     -2.01580   -9.87780   -0.85070
N     -2.16770  -12.73870   -1.03420
H    -10.10310    9.45120    0.78880
H     -1.02980   -8.06720   -0.71800
H     -1.05550  -10.37010   -0.86300
H     -5.47060   -8.00360   -0.80960
N     -7.87840   13.50670    1.02330
C     -7.89690   12.03830    0.96220
O     -6.77390   14.06640    1.04830
C     -6.68680   11.32710    0.94930
C     -9.12500   11.36110    0.90940
O     -8.96880   14.09390    1.04340
N     -7.95450    7.79010    0.72220
C     -7.93350    9.25410    0.81680
O     -9.05440    7.22090    0.64830
C     -9.14360    9.96430    0.83530
C     -6.70490    9.92970    0.87630
O     -6.87220    7.18900    0.70580
H    -10.06960   11.90380    0.92120
H     -5.72850   11.84340    0.99150
H     -5.75900    9.38860    0.86210
H     -5.50500  -10.30960   -0.92080
H     -2.11330   -4.98390   -1.40090
H     -2.21990  -13.39350   -0.25650
H     -4.42090  -13.26190   -1.90910
H     -5.29680  -12.14830   -1.08160
H     -1.31240  -12.20840   -0.93850
H     -1.22980   -6.23140   -0.75780
H     -5.22390   -6.17390   -0.63570
H     -4.30010   -4.98060    0.06140
H      2.76910    9.13640    1.21520
C      4.89340   13.24770    1.46830
C      4.94620   11.76160    1.39620
O      6.11010   13.82010    1.51960
C      6.14390   11.03890    1.38360
C      3.73890   11.05930    1.33850
O      3.87630   13.91790    1.48620
C      4.82980    7.45350    1.13870
C      4.91170    8.93680    1.24490
O      3.80710    6.79100    1.05220
C      3.71880    9.66160    1.26440
C      6.12560    9.63400    1.30970
O      6.04190    6.87230    1.13040
H      2.80210   11.60310    1.34640
