     380
lvs       32.000       0.000       0.000       0.000      32.000       0.000       0.000       0.000      60.000
Na        0.000000       0.000000       5.656854       0.900
Cl        0.000000       0.000000       2.828427      -0.900
Na        0.000000       0.000000       0.000000       0.900
Cl        2.000000       2.000000       5.656854      -0.900
Na        2.000000       2.000000       2.828427       0.900
Cl        2.000000       2.000000       0.000000      -0.900
Na        4.000000       0.000000       5.656854       0.900
Cl        4.000000       0.000000       2.828427      -0.900
Na        4.000000       0.000000       0.000000       0.900
Cl        6.000000       2.000000       5.656854      -0.900
Na        6.000000       2.000000       2.828427       0.900
Cl        6.000000       2.000000       0.000000      -0.900
Na        8.000000       0.000000       5.656854       0.900
Cl        8.000000       0.000000       2.828427      -0.900
Na        8.000000       0.000000       0.000000       0.900
Cl       10.000000       2.000000       5.656854      -0.900
Na       10.000000       2.000000       2.828427       0.900
Cl       10.000000       2.000000       0.000000      -0.900
Na       12.000000       0.000000       5.656854       0.900
Cl       12.000000       0.000000       2.828427      -0.900
Na       12.000000       0.000000       0.000000       0.900
Cl       14.000000       2.000000       5.656854      -0.900
Na       14.000000       2.000000       2.828427       0.900
Cl       14.000000       2.000000       0.000000      -0.900
Na       16.000000       0.000000       5.656854       0.900
Cl       16.000000       0.000000       2.828427      -0.900
Na       16.000000       0.000000       0.000000       0.900
Cl       18.000000       2.000000       5.656854      -0.900
Na       18.000000       2.000000       2.828427       0.900
Cl       18.000000       2.000000       0.000000      -0.900
Na       20.000000       0.000000       5.656854       0.900
Cl       20.000000       0.000000       2.828427      -0.900
Na       20.000000       0.000000       0.000000       0.900
Cl       22.000000       2.000000       5.656854      -0.900
Na       22.000000       2.000000       2.828427       0.900
Cl       22.000000       2.000000       0.000000      -0.900
Na       24.000000       0.000000       5.656854       0.900
Cl       24.000000       0.000000       2.828427      -0.900
Na       24.000000       0.000000       0.000000       0.900
Cl       26.000000       2.000000       5.656854      -0.900
Na       26.000000       2.000000       2.828427       0.900
Cl       26.000000       2.000000       0.000000      -0.900
Na       28.000000       0.000000       5.656854       0.900
Cl       28.000000       0.000000       2.828427      -0.900
Na       28.000000       0.000000       0.000000       0.900
Cl       30.000000       2.000000       5.656854      -0.900
Na       30.000000       2.000000       2.828427       0.900
Cl       30.000000       2.000000       0.000000      -0.900
Na        0.000000       4.000000       5.656854       0.900
Cl        0.000000       4.000000       2.828427      -0.900
Na        0.000000       4.000000       0.000000       0.900
Cl        2.000000       6.000000       5.656854      -0.900
Na        2.000000       6.000000       2.828427       0.900
Cl        2.000000       6.000000       0.000000      -0.900
Na        4.000000       4.000000       5.656854       0.900
Cl        4.000000       4.000000       2.828427      -0.900
Na        4.000000       4.000000       0.000000       0.900
Cl        6.000000       6.000000       5.656854      -0.900
Na        6.000000       6.000000       2.828427       0.900
Cl        6.000000       6.000000       0.000000      -0.900
Na        8.000000       4.000000       5.656854       0.900
Cl        8.000000       4.000000       2.828427      -0.900
Na        8.000000       4.000000       0.000000       0.900
Cl       10.000000       6.000000       5.656854      -0.900
Na       10.000000       6.000000       2.828427       0.900
Cl       10.000000       6.000000       0.000000      -0.900
Na       12.000000       4.000000       5.656854       0.900
Cl       12.000000       4.000000       2.828427      -0.900
Na       12.000000       4.000000       0.000000       0.900
Cl       14.000000       6.000000       5.656854      -0.900
Na       14.000000       6.000000       2.828427       0.900
Cl       14.000000       6.000000       0.000000      -0.900
Na       16.000000       4.000000       5.656854       0.900
Cl       16.000000       4.000000       2.828427      -0.900
Na       16.000000       4.000000       0.000000       0.900
Cl       18.000000       6.000000       5.656854      -0.900
Na       18.000000       6.000000       2.828427       0.900
Cl       18.000000       6.000000       0.000000      -0.900
Na       20.000000       4.000000       5.656854       0.900
Cl       20.000000       4.000000       2.828427      -0.900
Na       20.000000       4.000000       0.000000       0.900
Cl       22.000000       6.000000       5.656854      -0.900
Na       22.000000       6.000000       2.828427       0.900
Cl       22.000000       6.000000       0.000000      -0.900
Na       24.000000       4.000000       5.656854       0.900
Cl       24.000000       4.000000       2.828427      -0.900
Na       24.000000       4.000000       0.000000       0.900
Cl       26.000000       6.000000       5.656854      -0.900
Na       26.000000       6.000000       2.828427       0.900
Cl       26.000000       6.000000       0.000000      -0.900
Na       28.000000       4.000000       5.656854       0.900
Cl       28.000000       4.000000       2.828427      -0.900
Na       28.000000       4.000000       0.000000       0.900
Cl       30.000000       6.000000       5.656854      -0.900
Na       30.000000       6.000000       2.828427       0.900
Cl       30.000000       6.000000       0.000000      -0.900
Na        0.000000       8.000000       5.656854       0.900
Cl        0.000000       8.000000       2.828427      -0.900
Na        0.000000       8.000000       0.000000       0.900
Cl        2.000000      10.000000       5.656854      -0.900
Na        2.000000      10.000000       2.828427       0.900
Cl        2.000000      10.000000       0.000000      -0.900
Na        4.000000       8.000000       5.656854       0.900
Cl        4.000000       8.000000       2.828427      -0.900
Na        4.000000       8.000000       0.000000       0.900
Cl        6.000000      10.000000       5.656854      -0.900
Na        6.000000      10.000000       2.828427       0.900
Cl        6.000000      10.000000       0.000000      -0.900
Na        8.000000       8.000000       5.656854       0.900
Cl        8.000000       8.000000       2.828427      -0.900
Na        8.000000       8.000000       0.000000       0.900
Cl       10.000000      10.000000       5.656854      -0.900
Na       10.000000      10.000000       2.828427       0.900
Cl       10.000000      10.000000       0.000000      -0.900
Na       12.000000       8.000000       5.656854       0.900
Cl       12.000000       8.000000       2.828427      -0.900
Na       12.000000       8.000000       0.000000       0.900
Cl       14.000000      10.000000       5.656854      -0.900
Na       14.000000      10.000000       2.828427       0.900
Cl       14.000000      10.000000       0.000000      -0.900
Na       16.000000       8.000000       5.656854       0.900
Cl       16.000000       8.000000       2.828427      -0.900
Na       16.000000       8.000000       0.000000       0.900
Cl       18.000000      10.000000       5.656854      -0.900
Na       18.000000      10.000000       2.828427       0.900
Cl       18.000000      10.000000       0.000000      -0.900
Na       20.000000       8.000000       5.656854       0.900
Cl       20.000000       8.000000       2.828427      -0.900
Na       20.000000       8.000000       0.000000       0.900
Cl       22.000000      10.000000       5.656854      -0.900
Na       22.000000      10.000000       2.828427       0.900
Cl       22.000000      10.000000       0.000000      -0.900
Na       24.000000       8.000000       5.656854       0.900
Cl       24.000000       8.000000       2.828427      -0.900
Na       24.000000       8.000000       0.000000       0.900
Cl       26.000000      10.000000       5.656854      -0.900
Na       26.000000      10.000000       2.828427       0.900
Cl       26.000000      10.000000       0.000000      -0.900
Na       28.000000       8.000000       5.656854       0.900
Cl       28.000000       8.000000       2.828427      -0.900
Na       28.000000       8.000000       0.000000       0.900
Cl       30.000000      10.000000       5.656854      -0.900
Na       30.000000      10.000000       2.828427       0.900
Cl       30.000000      10.000000       0.000000      -0.900
Na        0.000000      12.000000       5.656854       0.900
Cl        0.000000      12.000000       2.828427      -0.900
Na        0.000000      12.000000       0.000000       0.900
Cl        2.000000      14.000000       5.656854      -0.900
Na        2.000000      14.000000       2.828427       0.900
Cl        2.000000      14.000000       0.000000      -0.900
Na        4.000000      12.000000       5.656854       0.900
Cl        4.000000      12.000000       2.828427      -0.900
Na        4.000000      12.000000       0.000000       0.900
Cl        6.000000      14.000000       5.656854      -0.900
Na        6.000000      14.000000       2.828427       0.900
Cl        6.000000      14.000000       0.000000      -0.900
Na        8.000000      12.000000       5.656854       0.900
Cl        8.000000      12.000000       2.828427      -0.900
Na        8.000000      12.000000       0.000000       0.900
Cl       10.000000      14.000000       5.656854      -0.900
Na       10.000000      14.000000       2.828427       0.900
Cl       10.000000      14.000000       0.000000      -0.900
Na       12.000000      12.000000       5.656854       0.900
Cl       12.000000      12.000000       2.828427      -0.900
Na       12.000000      12.000000       0.000000       0.900
Cl       14.000000      14.000000       5.656854      -0.900
Na       14.000000      14.000000       2.828427       0.900
Cl       14.000000      14.000000       0.000000      -0.900
Na       16.000000      12.000000       5.656854       0.900
Cl       16.000000      12.000000       2.828427      -0.900
Na       16.000000      12.000000       0.000000       0.900
Cl       18.000000      14.000000       5.656854      -0.900
Na       18.000000      14.000000       2.828427       0.900
Cl       18.000000      14.000000       0.000000      -0.900
Na       20.000000      12.000000       5.656854       0.900
Cl       20.000000      12.000000       2.828427      -0.900
Na       20.000000      12.000000       0.000000       0.900
Cl       22.000000      14.000000       5.656854      -0.900
Na       22.000000      14.000000       2.828427       0.900
Cl       22.000000      14.000000       0.000000      -0.900
Na       24.000000      12.000000       5.656854       0.900
Cl       24.000000      12.000000       2.828427      -0.900
Na       24.000000      12.000000       0.000000       0.900
Cl       26.000000      14.000000       5.656854      -0.900
Na       26.000000      14.000000       2.828427       0.900
Cl       26.000000      14.000000       0.000000      -0.900
Na       28.000000      12.000000       5.656854       0.900
Cl       28.000000      12.000000       2.828427      -0.900
Na       28.000000      12.000000       0.000000       0.900
Cl       30.000000      14.000000       5.656854      -0.900
Na       30.000000      14.000000       2.828427       0.900
Cl       30.000000      14.000000       0.000000      -0.900
Na        0.000000      16.000000       5.656854       0.900
Cl        0.000000      16.000000       2.828427      -0.900
Na        0.000000      16.000000       0.000000       0.900
Cl        2.000000      18.000000       5.656854      -0.900
Na        2.000000      18.000000       2.828427       0.900
Cl        2.000000      18.000000       0.000000      -0.900
Na        4.000000      16.000000       5.656854       0.900
Cl        4.000000      16.000000       2.828427      -0.900
Na        4.000000      16.000000       0.000000       0.900
Cl        6.000000      18.000000       5.656854      -0.900
Na        6.000000      18.000000       2.828427       0.900
Cl        6.000000      18.000000       0.000000      -0.900
Na        8.000000      16.000000       5.656854       0.900
Cl        8.000000      16.000000       2.828427      -0.900
Na        8.000000      16.000000       0.000000       0.900
Cl       10.000000      18.000000       5.656854      -0.900
Na       10.000000      18.000000       2.828427       0.900
Cl       10.000000      18.000000       0.000000      -0.900
Na       12.000000      16.000000       5.656854       0.900
Cl       12.000000      16.000000       2.828427      -0.900
Na       12.000000      16.000000       0.000000       0.900
Cl       14.000000      18.000000       5.656854      -0.900
Na       14.000000      18.000000       2.828427       0.900
Cl       14.000000      18.000000       0.000000      -0.900
Na       16.000000      16.000000       5.656854       0.900
Cl       16.000000      16.000000       2.828427      -0.900
Na       16.000000      16.000000       0.000000       0.900
Cl       18.000000      18.000000       5.656854      -0.900
Na       18.000000      18.000000       2.828427       0.900
Cl       18.000000      18.000000       0.000000      -0.900
Na       20.000000      16.000000       5.656854       0.900
Cl       20.000000      16.000000       2.828427      -0.900
Na       20.000000      16.000000       0.000000       0.900
Cl       22.000000      18.000000       5.656854      -0.900
Na       22.000000      18.000000       2.828427       0.900
Cl       22.000000      18.000000       0.000000      -0.900
Na       24.000000      16.000000       5.656854       0.900
Cl       24.000000      16.000000       2.828427      -0.900
Na       24.000000      16.000000       0.000000       0.900
Cl       26.000000      18.000000       5.656854      -0.900
Na       26.000000      18.000000       2.828427       0.900
Cl       26.000000      18.000000       0.000000      -0.900
Na       28.000000      16.000000       5.656854       0.900
Cl       28.000000      16.000000       2.828427      -0.900
Na       28.000000      16.000000       0.000000       0.900
Cl       30.000000      18.000000       5.656854      -0.900
Na       30.000000      18.000000       2.828427       0.900
Cl       30.000000      18.000000       0.000000      -0.900
Na        0.000000      20.000000       5.656854       0.900
Cl        0.000000      20.000000       2.828427      -0.900
Na        0.000000      20.000000       0.000000       0.900
Cl        2.000000      22.000000       5.656854      -0.900
Na        2.000000      22.000000       2.828427       0.900
Cl        2.000000      22.000000       0.000000      -0.900
Na        4.000000      20.000000       5.656854       0.900
Cl        4.000000      20.000000       2.828427      -0.900
Na        4.000000      20.000000       0.000000       0.900
Cl        6.000000      22.000000       5.656854      -0.900
Na        6.000000      22.000000       2.828427       0.900
Cl        6.000000      22.000000       0.000000      -0.900
Na        8.000000      20.000000       5.656854       0.900
Cl        8.000000      20.000000       2.828427      -0.900
Na        8.000000      20.000000       0.000000       0.900
Cl       10.000000      22.000000       5.656854      -0.900
Na       10.000000      22.000000       2.828427       0.900
Cl       10.000000      22.000000       0.000000      -0.900
Na       12.000000      20.000000       5.656854       0.900
Cl       12.000000      20.000000       2.828427      -0.900
Na       12.000000      20.000000       0.000000       0.900
Cl       14.000000      22.000000       5.656854      -0.900
Na       14.000000      22.000000       2.828427       0.900
Cl       14.000000      22.000000       0.000000      -0.900
Cl       16.000000      20.000000       2.828427      -0.900
Na       16.000000      20.000000       0.000000       0.900
Cl       18.000000      22.000000       5.656854      -0.900
Na       18.000000      22.000000       2.828427       0.900
Cl       18.000000      22.000000       0.000000      -0.900
Cl       20.000000      20.000000       2.828427      -0.900
Na       20.000000      20.000000       0.000000       0.900
Cl       22.000000      22.000000       5.656854      -0.900
Na       22.000000      22.000000       2.828427       0.900
Cl       22.000000      22.000000       0.000000      -0.900
Na       24.000000      20.000000       5.656854       0.900
Cl       24.000000      20.000000       2.828427      -0.900
Na       24.000000      20.000000       0.000000       0.900
Cl       26.000000      22.000000       5.656854      -0.900
Na       26.000000      22.000000       2.828427       0.900
Cl       26.000000      22.000000       0.000000      -0.900
Na       28.000000      20.000000       5.656854       0.900
Cl       28.000000      20.000000       2.828427      -0.900
Na       28.000000      20.000000       0.000000       0.900
Cl       30.000000      22.000000       5.656854      -0.900
Na       30.000000      22.000000       2.828427       0.900
Cl       30.000000      22.000000       0.000000      -0.900
Na        0.000000      24.000000       5.656854       0.900
Cl        0.000000      24.000000       2.828427      -0.900
Na        0.000000      24.000000       0.000000       0.900
Cl        2.000000      26.000000       5.656854      -0.900
Na        2.000000      26.000000       2.828427       0.900
Cl        2.000000      26.000000       0.000000      -0.900
Na        4.000000      24.000000       5.656854       0.900
Cl        4.000000      24.000000       2.828427      -0.900
Na        4.000000      24.000000       0.000000       0.900
Cl        6.000000      26.000000       5.656854      -0.900
Na        6.000000      26.000000       2.828427       0.900
Cl        6.000000      26.000000       0.000000      -0.900
Na        8.000000      24.000000       5.656854       0.900
Cl        8.000000      24.000000       2.828427      -0.900
Na        8.000000      24.000000       0.000000       0.900
Cl       10.000000      26.000000       5.656854      -0.900
Na       10.000000      26.000000       2.828427       0.900
Cl       10.000000      26.000000       0.000000      -0.900
Na       12.000000      24.000000       5.656854       0.900
Cl       12.000000      24.000000       2.828427      -0.900
Na       12.000000      24.000000       0.000000       0.900
Cl       14.000000      26.000000       5.656854      -0.900
Na       14.000000      26.000000       2.828427       0.900
Cl       14.000000      26.000000       0.000000      -0.900
Cl       16.000000      24.000000       2.828427      -0.900
Na       16.000000      24.000000       0.000000       0.900
Cl       18.000000      26.000000       5.656854      -0.900
Na       18.000000      26.000000       2.828427       0.900
Cl       18.000000      26.000000       0.000000      -0.900
Na       20.000000      24.000000       5.656854       0.900
Cl       20.000000      24.000000       2.828427      -0.900
Na       20.000000      24.000000       0.000000       0.900
Cl       22.000000      26.000000       5.656854      -0.900
Na       22.000000      26.000000       2.828427       0.900
Cl       22.000000      26.000000       0.000000      -0.900
Na       24.000000      24.000000       5.656854       0.900
Cl       24.000000      24.000000       2.828427      -0.900
Na       24.000000      24.000000       0.000000       0.900
Cl       26.000000      26.000000       5.656854      -0.900
Na       26.000000      26.000000       2.828427       0.900
Cl       26.000000      26.000000       0.000000      -0.900
Na       28.000000      24.000000       5.656854       0.900
Cl       28.000000      24.000000       2.828427      -0.900
Na       28.000000      24.000000       0.000000       0.900
Cl       30.000000      26.000000       5.656854      -0.900
Na       30.000000      26.000000       2.828427       0.900
Cl       30.000000      26.000000       0.000000      -0.900
Na        0.000000      28.000000       5.656854       0.900
Cl        0.000000      28.000000       2.828427      -0.900
Na        0.000000      28.000000       0.000000       0.900
Cl        2.000000      30.000000       5.656854      -0.900
Na        2.000000      30.000000       2.828427       0.900
Cl        2.000000      30.000000       0.000000      -0.900
Na        4.000000      28.000000       5.656854       0.900
Cl        4.000000      28.000000       2.828427      -0.900
Na        4.000000      28.000000       0.000000       0.900
Cl        6.000000      30.000000       5.656854      -0.900
Na        6.000000      30.000000       2.828427       0.900
Cl        6.000000      30.000000       0.000000      -0.900
Na        8.000000      28.000000       5.656854       0.900
Cl        8.000000      28.000000       2.828427      -0.900
Na        8.000000      28.000000       0.000000       0.900
Cl       10.000000      30.000000       5.656854      -0.900
Na       10.000000      30.000000       2.828427       0.900
Cl       10.000000      30.000000       0.000000      -0.900
Na       12.000000      28.000000       5.656854       0.900
Cl       12.000000      28.000000       2.828427      -0.900
Na       12.000000      28.000000       0.000000       0.900
Cl       14.000000      30.000000       5.656854      -0.900
Na       14.000000      30.000000       2.828427       0.900
Cl       14.000000      30.000000       0.000000      -0.900
Cl       16.000000      28.000000       2.828427      -0.900
Na       16.000000      28.000000       0.000000       0.900
Cl       18.000000      30.000000       5.656854      -0.900
Na       18.000000      30.000000       2.828427       0.900
Cl       18.000000      30.000000       0.000000      -0.900
Na       20.000000      28.000000       5.656854       0.900
Cl       20.000000      28.000000       2.828427      -0.900
Na       20.000000      28.000000       0.000000       0.900
Cl       22.000000      30.000000       5.656854      -0.900
Na       22.000000      30.000000       2.828427       0.900
Cl       22.000000      30.000000       0.000000      -0.900
Na       24.000000      28.000000       5.656854       0.900
Cl       24.000000      28.000000       2.828427      -0.900
Na       24.000000      28.000000       0.000000       0.900
Cl       26.000000      30.000000       5.656854      -0.900
Na       26.000000      30.000000       2.828427       0.900
Cl       26.000000      30.000000       0.000000      -0.900
Na       28.000000      28.000000       5.656854       0.900
Cl       28.000000      28.000000       2.828427      -0.900
Na       28.000000      28.000000       0.000000       0.900
Cl       30.000000      30.000000       5.656854      -0.900
Na       30.000000      30.000000       2.828427       0.900
Cl       30.000000      30.000000       0.000000      -0.900
