24
lvs 8.000  0.000  0.000    0.000 8.000  0.000    0.000  0.000 20.000
Na     12.00000     12.00000     -3.25000
Cl     12.00000     12.00000     -6.07843
Na     12.00000     12.00000     -8.90685
Cl     14.00000     14.00000     -3.25000
Na     14.00000     14.00000     -6.07843
Cl     14.00000     14.00000     -8.90685
Na     16.00000     12.00000     -3.25000
Cl     16.00000     12.00000     -6.07843
Na     16.00000     12.00000     -8.90685
Cl     18.00000     14.00000     -3.25000
Na     18.00000     14.00000     -6.07843
Cl     18.00000     14.00000     -8.90685
Na     12.00000     16.00000     -3.25000
Cl     12.00000     16.00000     -6.07843
Na     12.00000     16.00000     -8.90685
Cl     14.00000     18.00000     -3.25000
Na     14.00000     18.00000     -6.07843
Cl     14.00000     18.00000     -8.90685
Na     16.00000     16.00000     -3.25000
Cl     16.00000     16.00000     -6.07843
Na     16.00000     16.00000     -8.90685
Cl     18.00000     18.00000     -3.25000
Na     18.00000     18.00000     -6.07843
Cl     18.00000     18.00000     -8.90685
