468
lvs 36.66845 0 0   0 33.8478 0   0 0 8.46195
Na    0.00000    0.00000    0.00000 0.7 
Cl    0.00000    2.82065    0.00000 -0.7 
Na    0.00000    5.64130    0.00000 0.7 
Cl    0.00000    8.46195    0.00000 -0.7 
Na    0.00000   11.28260    0.00000 0.7 
Cl    0.00000   14.10325    0.00000 -0.7 
Na    0.00000   16.92390    0.00000 0.7 
Cl    0.00000   19.74455    0.00000 -0.7 
Na    0.00000   22.56520    0.00000 0.7 
Cl    0.00000   25.38585    0.00000 -0.7 
Na    0.00000   28.20650    0.00000 0.7 
Cl    0.00000   31.02715    0.00000 -0.7 
Cl    2.82065    0.00000   -0.21697 -0.7 
Na    2.82065    2.82065   -0.21697 0.7 
Cl    2.82065    5.64130   -0.21697 -0.7 
Na    2.82065    8.46195   -0.21697 0.7 
Cl    2.82065   11.28260   -0.21697 -0.7 
Na    2.82065   14.10325   -0.21697 0.7 
Cl    2.82065   16.92390   -0.21697 -0.7 
Na    2.82065   19.74455   -0.21697 0.7 
Cl    2.82065   22.56520   -0.21697 -0.7 
Na    2.82065   25.38585   -0.21697 0.7 
Cl    2.82065   28.20650   -0.21697 -0.7 
Na    2.82065   31.02715   -0.21697 0.7 
Na    5.64130    0.00000   -0.43395 0.7 
Cl    5.64130    2.82065   -0.43395 -0.7 
Na    5.64130    5.64130   -0.43395 0.7 
Cl    5.64130    8.46195   -0.43395 -0.7 
Na    5.64130   11.28260   -0.43395 0.7 
Cl    5.64130   14.10325   -0.43395 -0.7 
Na    5.64130   16.92390   -0.43395 0.7 
Cl    5.64130   19.74455   -0.43395 -0.7 
Na    5.64130   22.56520   -0.43395 0.7 
Cl    5.64130   25.38585   -0.43395 -0.7 
Na    5.64130   28.20650   -0.43395 0.7 
Cl    5.64130   31.02715   -0.43395 -0.7 
Cl    8.46195    0.00000   -0.65092 -0.7 
Na    8.46195    2.82065   -0.65092 0.7 
Cl    8.46195    5.64130   -0.65092 -0.7 
Na    8.46195    8.46195   -0.65092 0.7 
Cl    8.46195   11.28260   -0.65092 -0.7 
Na    8.46195   14.10325   -0.65092 0.7 
Cl    8.46195   16.92390   -0.65092 -0.7 
Na    8.46195   19.74455   -0.65092 0.7 
Cl    8.46195   22.56520   -0.65092 -0.7 
Na    8.46195   25.38585   -0.65092 0.7 
Cl    8.46195   28.20650   -0.65092 -0.7 
Na    8.46195   31.02715   -0.65092 0.7 
Na   11.28260    0.00000   -0.86789 0.7 
Cl   11.28260    2.82065   -0.86789 -0.7 
Na   11.28260    5.64130   -0.86789 0.7 
Cl   11.28260    8.46195   -0.86789 -0.7 
Na   11.28260   11.28260   -0.86789 0.7 
Cl   11.28260   14.10325   -0.86789 -0.7 
Na   11.28260   16.92390   -0.86789 0.7 
Cl   11.28260   19.74455   -0.86789 -0.7 
Na   11.28260   22.56520   -0.86789 0.7 
Cl   11.28260   25.38585   -0.86789 -0.7 
Na   11.28260   28.20650   -0.86789 0.7 
Cl   11.28260   31.02715   -0.86789 -0.7 
Cl   14.10325    0.00000   -1.08487 -0.7 
Na   14.10325    2.82065   -1.08487 0.7 
Cl   14.10325    5.64130   -1.08487 -0.7 
Na   14.10325    8.46195   -1.08487 0.7 
Cl   14.10325   11.28260   -1.08487 -0.7 
Na   14.10325   14.10325   -1.08487 0.7 
Cl   14.10325   16.92390   -1.08487 -0.7 
Na   14.10325   19.74455   -1.08487 0.7 
Cl   14.10325   22.56520   -1.08487 -0.7 
Na   14.10325   25.38585   -1.08487 0.7 
Cl   14.10325   28.20650   -1.08487 -0.7 
Na   14.10325   31.02715   -1.08487 0.7 
Na   16.92390    0.00000   -1.30184 0.7 
Cl   16.92390    2.82065   -1.30184 -0.7 
Na   16.92390    5.64130   -1.30184 0.7 
Cl   16.92390    8.46195   -1.30184 -0.7 
Na   16.92390   11.28260   -1.30184 0.7 
Cl   16.92390   14.10325   -1.30184 -0.7 
Na   16.92390   16.92390   -1.30184 0.7 
Cl   16.92390   19.74455   -1.30184 -0.7 
Na   16.92390   22.56520   -1.30184 0.7 
Cl   16.92390   25.38585   -1.30184 -0.7 
Na   16.92390   28.20650   -1.30184 0.7 
Cl   16.92390   31.02715   -1.30184 -0.7 
Na   19.74455    0.00000    1.30184 0.7 
Cl   19.74455    2.82065    1.30184 -0.7 
Na   19.74455    5.64130    1.30184 0.7 
Cl   19.74455    8.46195    1.30184 -0.7 
Na   19.74455   11.28260    1.30184 0.7 
Cl   19.74455   14.10325    1.30184 -0.7 
Na   19.74455   16.92390    1.30184 0.7 
Cl   19.74455   19.74455    1.30184 -0.7 
Na   19.74455   22.56520    1.30184 0.7 
Cl   19.74455   25.38585    1.30184 -0.7 
Na   19.74455   28.20650    1.30184 0.7 
Cl   19.74455   31.02715    1.30184 -0.7 
Cl   22.56520    0.00000    1.08487 -0.7 
Na   22.56520    2.82065    1.08487 0.7 
Cl   22.56520    5.64130    1.08487 -0.7 
Na   22.56520    8.46195    1.08487 0.7 
Cl   22.56520   11.28260    1.08487 -0.7 
Na   22.56520   14.10325    1.08487 0.7 
Cl   22.56520   16.92390    1.08487 -0.7 
Na   22.56520   19.74455    1.08487 0.7 
Cl   22.56520   22.56520    1.08487 -0.7 
Na   22.56520   25.38585    1.08487 0.7 
Cl   22.56520   28.20650    1.08487 -0.7 
Na   22.56520   31.02715    1.08487 0.7 
Na   25.38585    0.00000    0.86789 0.7 
Cl   25.38585    2.82065    0.86789 -0.7 
Na   25.38585    5.64130    0.86789 0.7 
Cl   25.38585    8.46195    0.86789 -0.7 
Na   25.38585   11.28260    0.86789 0.7 
Cl   25.38585   14.10325    0.86789 -0.7 
Na   25.38585   16.92390    0.86789 0.7 
Cl   25.38585   19.74455    0.86789 -0.7 
Na   25.38585   22.56520    0.86789 0.7 
Cl   25.38585   25.38585    0.86789 -0.7 
Na   25.38585   28.20650    0.86789 0.7 
Cl   25.38585   31.02715    0.86789 -0.7 
Cl   28.20650    0.00000    0.65092 -0.7 
Na   28.20650    2.82065    0.65092 0.7 
Cl   28.20650    5.64130    0.65092 -0.7 
Na   28.20650    8.46195    0.65092 0.7 
Cl   28.20650   11.28260    0.65092 -0.7 
Na   28.20650   14.10325    0.65092 0.7 
Cl   28.20650   16.92390    0.65092 -0.7 
Na   28.20650   19.74455    0.65092 0.7 
Cl   28.20650   22.56520    0.65092 -0.7 
Na   28.20650   25.38585    0.65092 0.7 
Cl   28.20650   28.20650    0.65092 -0.7 
Na   28.20650   31.02715    0.65092 0.7 
Na   31.02715    0.00000    0.43395 0.7 
Cl   31.02715    2.82065    0.43395 -0.7 
Na   31.02715    5.64130    0.43395 0.7 
Cl   31.02715    8.46195    0.43395 -0.7 
Na   31.02715   11.28260    0.43395 0.7 
Cl   31.02715   14.10325    0.43395 -0.7 
Na   31.02715   16.92390    0.43395 0.7 
Cl   31.02715   19.74455    0.43395 -0.7 
Na   31.02715   22.56520    0.43395 0.7 
Cl   31.02715   25.38585    0.43395 -0.7 
Na   31.02715   28.20650    0.43395 0.7 
Cl   31.02715   31.02715    0.43395 -0.7 
Cl   33.84780    0.00000    0.21697 -0.7 
Na   33.84780    2.82065    0.21697 0.7 
Cl   33.84780    5.64130    0.21697 -0.7 
Na   33.84780    8.46195    0.21697 0.7 
Cl   33.84780   11.28260    0.21697 -0.7 
Na   33.84780   14.10325    0.21697 0.7 
Cl   33.84780   16.92390    0.21697 -0.7 
Na   33.84780   19.74455    0.21697 0.7 
Cl   33.84780   22.56520    0.21697 -0.7 
Na   33.84780   25.38585    0.21697 0.7 
Cl   33.84780   28.20650    0.21697 -0.7 
Na   33.84780   31.02715    0.21697 0.7 
Cl    0.21697    0.00000    2.82065 -0.7 
Na    0.21697    2.82065    2.82065 0.7 
Cl    0.21697    5.64130    2.82065 -0.7 
Na    0.21697    8.46195    2.82065 0.7 
Cl    0.21697   11.28260    2.82065 -0.7 
Na    0.21697   14.10325    2.82065 0.7 
Cl    0.21697   16.92390    2.82065 -0.7 
Na    0.21697   19.74455    2.82065 0.7 
Cl    0.21697   22.56520    2.82065 -0.7 
Na    0.21697   25.38585    2.82065 0.7 
Cl    0.21697   28.20650    2.82065 -0.7 
Na    0.21697   31.02715    2.82065 0.7 
Na    3.03762    0.00000    2.60368 0.7 
Cl    3.03762    2.82065    2.60368 -0.7 
Na    3.03762    5.64130    2.60368 0.7 
Cl    3.03762    8.46195    2.60368 -0.7 
Na    3.03762   11.28260    2.60368 0.7 
Cl    3.03762   14.10325    2.60368 -0.7 
Na    3.03762   16.92390    2.60368 0.7 
Cl    3.03762   19.74455    2.60368 -0.7 
Na    3.03762   22.56520    2.60368 0.7 
Cl    3.03762   25.38585    2.60368 -0.7 
Na    3.03762   28.20650    2.60368 0.7 
Cl    3.03762   31.02715    2.60368 -0.7 
Cl    5.85827    0.00000    2.38670 -0.7 
Na    5.85827    2.82065    2.38670 0.7 
Cl    5.85827    5.64130    2.38670 -0.7 
Na    5.85827    8.46195    2.38670 0.7 
Cl    5.85827   11.28260    2.38670 -0.7 
Na    5.85827   14.10325    2.38670 0.7 
Cl    5.85827   16.92390    2.38670 -0.7 
Na    5.85827   19.74455    2.38670 0.7 
Cl    5.85827   22.56520    2.38670 -0.7 
Na    5.85827   25.38585    2.38670 0.7 
Cl    5.85827   28.20650    2.38670 -0.7 
Na    5.85827   31.02715    2.38670 0.7 
Na    8.67892    0.00000    2.16973 0.7 
Cl    8.67892    2.82065    2.16973 -0.7 
Na    8.67892    5.64130    2.16973 0.7 
Cl    8.67892    8.46195    2.16973 -0.7 
Na    8.67892   11.28260    2.16973 0.7 
Cl    8.67892   14.10325    2.16973 -0.7 
Na    8.67892   16.92390    2.16973 0.7 
Cl    8.67892   19.74455    2.16973 -0.7 
Na    8.67892   22.56520    2.16973 0.7 
Cl    8.67892   25.38585    2.16973 -0.7 
Na    8.67892   28.20650    2.16973 0.7 
Cl    8.67892   31.02715    2.16973 -0.7 
Cl   11.49957    0.00000    1.95276 -0.7 
Na   11.49957    2.82065    1.95276 0.7 
Cl   11.49957    5.64130    1.95276 -0.7 
Na   11.49957    8.46195    1.95276 0.7 
Cl   11.49957   11.28260    1.95276 -0.7 
Na   11.49957   14.10325    1.95276 0.7 
Cl   11.49957   16.92390    1.95276 -0.7 
Na   11.49957   19.74455    1.95276 0.7 
Cl   11.49957   22.56520    1.95276 -0.7 
Na   11.49957   25.38585    1.95276 0.7 
Cl   11.49957   28.20650    1.95276 -0.7 
Na   11.49957   31.02715    1.95276 0.7 
Na   14.32022    0.00000    1.73578 0.7 
Cl   14.32022    2.82065    1.73578 -0.7 
Na   14.32022    5.64130    1.73578 0.7 
Cl   14.32022    8.46195    1.73578 -0.7 
Na   14.32022   11.28260    1.73578 0.7 
Cl   14.32022   14.10325    1.73578 -0.7 
Na   14.32022   16.92390    1.73578 0.7 
Cl   14.32022   19.74455    1.73578 -0.7 
Na   14.32022   22.56520    1.73578 0.7 
Cl   14.32022   25.38585    1.73578 -0.7 
Na   14.32022   28.20650    1.73578 0.7 
Cl   14.32022   31.02715    1.73578 -0.7 
Cl   17.14087    0.00000    1.51881 -0.7 
Na   17.14087    2.82065    1.51881 0.7 
Cl   17.14087    5.64130    1.51881 -0.7 
Na   17.14087    8.46195    1.51881 0.7 
Cl   17.14087   11.28260    1.51881 -0.7 
Na   17.14087   14.10325    1.51881 0.7 
Cl   17.14087   16.92390    1.51881 -0.7 
Na   17.14087   19.74455    1.51881 0.7 
Cl   17.14087   22.56520    1.51881 -0.7 
Na   17.14087   25.38585    1.51881 0.7 
Cl   17.14087   28.20650    1.51881 -0.7 
Na   17.14087   31.02715    1.51881 0.7 
Cl   19.96152    0.00000    4.12249 -0.7 
Na   19.96152    2.82065    4.12249 0.7 
Cl   19.96152    5.64130    4.12249 -0.7 
Na   19.96152    8.46195    4.12249 0.7 
Cl   19.96152   11.28260    4.12249 -0.7 
Na   19.96152   14.10325    4.12249 0.7 
Cl   19.96152   16.92390    4.12249 -0.7 
Na   19.96152   19.74455    4.12249 0.7 
Cl   19.96152   22.56520    4.12249 -0.7 
Na   19.96152   25.38585    4.12249 0.7 
Cl   19.96152   28.20650    4.12249 -0.7 
Na   19.96152   31.02715    4.12249 0.7 
Na   22.78217    0.00000    3.90552 0.7 
Cl   22.78217    2.82065    3.90552 -0.7 
Na   22.78217    5.64130    3.90552 0.7 
Cl   22.78217    8.46195    3.90552 -0.7 
Na   22.78217   11.28260    3.90552 0.7 
Cl   22.78217   14.10325    3.90552 -0.7 
Na   22.78217   16.92390    3.90552 0.7 
Cl   22.78217   19.74455    3.90552 -0.7 
Na   22.78217   22.56520    3.90552 0.7 
Cl   22.78217   25.38585    3.90552 -0.7 
Na   22.78217   28.20650    3.90552 0.7 
Cl   22.78217   31.02715    3.90552 -0.7 
Cl   25.60282    0.00000    3.68854 -0.7 
Na   25.60282    2.82065    3.68854 0.7 
Cl   25.60282    5.64130    3.68854 -0.7 
Na   25.60282    8.46195    3.68854 0.7 
Cl   25.60282   11.28260    3.68854 -0.7 
Na   25.60282   14.10325    3.68854 0.7 
Cl   25.60282   16.92390    3.68854 -0.7 
Na   25.60282   19.74455    3.68854 0.7 
Cl   25.60282   22.56520    3.68854 -0.7 
Na   25.60282   25.38585    3.68854 0.7 
Cl   25.60282   28.20650    3.68854 -0.7 
Na   25.60282   31.02715    3.68854 0.7 
Na   28.42347    0.00000    3.47157 0.7 
Cl   28.42347    2.82065    3.47157 -0.7 
Na   28.42347    5.64130    3.47157 0.7 
Cl   28.42347    8.46195    3.47157 -0.7 
Na   28.42347   11.28260    3.47157 0.7 
Cl   28.42347   14.10325    3.47157 -0.7 
Na   28.42347   16.92390    3.47157 0.7 
Cl   28.42347   19.74455    3.47157 -0.7 
Na   28.42347   22.56520    3.47157 0.7 
Cl   28.42347   25.38585    3.47157 -0.7 
Na   28.42347   28.20650    3.47157 0.7 
Cl   28.42347   31.02715    3.47157 -0.7 
Cl   31.24412    0.00000    3.25460 -0.7 
Na   31.24412    2.82065    3.25460 0.7 
Cl   31.24412    5.64130    3.25460 -0.7 
Na   31.24412    8.46195    3.25460 0.7 
Cl   31.24412   11.28260    3.25460 -0.7 
Na   31.24412   14.10325    3.25460 0.7 
Cl   31.24412   16.92390    3.25460 -0.7 
Na   31.24412   19.74455    3.25460 0.7 
Cl   31.24412   22.56520    3.25460 -0.7 
Na   31.24412   25.38585    3.25460 0.7 
Cl   31.24412   28.20650    3.25460 -0.7 
Na   31.24412   31.02715    3.25460 0.7 
Na   34.06477    0.00000    3.03762 0.7 
Cl   34.06477    2.82065    3.03762 -0.7 
Na   34.06477    5.64130    3.03762 0.7 
Cl   34.06477    8.46195    3.03762 -0.7 
Na   34.06477   11.28260    3.03762 0.7 
Cl   34.06477   14.10325    3.03762 -0.7 
Na   34.06477   16.92390    3.03762 0.7 
Cl   34.06477   19.74455    3.03762 -0.7 
Na   34.06477   22.56520    3.03762 0.7 
Cl   34.06477   25.38585    3.03762 -0.7 
Na   34.06477   28.20650    3.03762 0.7 
Cl   34.06477   31.02715    3.03762 -0.7 
Na    0.43395    0.00000    5.64130 0.7 
Cl    0.43395    2.82065    5.64130 -0.7 
Na    0.43395    5.64130    5.64130 0.7 
Cl    0.43395    8.46195    5.64130 -0.7 
Na    0.43395   11.28260    5.64130 0.7 
Cl    0.43395   14.10325    5.64130 -0.7 
Na    0.43395   16.92390    5.64130 0.7 
Cl    0.43395   19.74455    5.64130 -0.7 
Na    0.43395   22.56520    5.64130 0.7 
Cl    0.43395   25.38585    5.64130 -0.7 
Na    0.43395   28.20650    5.64130 0.7 
Cl    0.43395   31.02715    5.64130 -0.7 
Cl    3.25460    0.00000    5.42433 -0.7 
Na    3.25460    2.82065    5.42433 0.7 
Cl    3.25460    5.64130    5.42433 -0.7 
Na    3.25460    8.46195    5.42433 0.7 
Cl    3.25460   11.28260    5.42433 -0.7 
Na    3.25460   14.10325    5.42433 0.7 
Cl    3.25460   16.92390    5.42433 -0.7 
Na    3.25460   19.74455    5.42433 0.7 
Cl    3.25460   22.56520    5.42433 -0.7 
Na    3.25460   25.38585    5.42433 0.7 
Cl    3.25460   28.20650    5.42433 -0.7 
Na    3.25460   31.02715    5.42433 0.7 
Na    6.07525    0.00000    5.20735 0.7 
Cl    6.07525    2.82065    5.20735 -0.7 
Na    6.07525    5.64130    5.20735 0.7 
Cl    6.07525    8.46195    5.20735 -0.7 
Na    6.07525   11.28260    5.20735 0.7 
Cl    6.07525   14.10325    5.20735 -0.7 
Na    6.07525   16.92390    5.20735 0.7 
Cl    6.07525   19.74455    5.20735 -0.7 
Na    6.07525   22.56520    5.20735 0.7 
Cl    6.07525   25.38585    5.20735 -0.7 
Na    6.07525   28.20650    5.20735 0.7 
Cl    6.07525   31.02715    5.20735 -0.7 
Cl    8.89590    0.00000    4.99038 -0.7 
Na    8.89590    2.82065    4.99038 0.7 
Cl    8.89590    5.64130    4.99038 -0.7 
Na    8.89590    8.46195    4.99038 0.7 
Cl    8.89590   11.28260    4.99038 -0.7 
Na    8.89590   14.10325    4.99038 0.7 
Cl    8.89590   16.92390    4.99038 -0.7 
Na    8.89590   19.74455    4.99038 0.7 
Cl    8.89590   22.56520    4.99038 -0.7 
Na    8.89590   25.38585    4.99038 0.7 
Cl    8.89590   28.20650    4.99038 -0.7 
Na    8.89590   31.02715    4.99038 0.7 
Na   11.71655    0.00000    4.77341 0.7 
Cl   11.71655    2.82065    4.77341 -0.7 
Na   11.71655    5.64130    4.77341 0.7 
Cl   11.71655    8.46195    4.77341 -0.7 
Na   11.71655   11.28260    4.77341 0.7 
Cl   11.71655   14.10325    4.77341 -0.7 
Na   11.71655   16.92390    4.77341 0.7 
Cl   11.71655   19.74455    4.77341 -0.7 
Na   11.71655   22.56520    4.77341 0.7 
Cl   11.71655   25.38585    4.77341 -0.7 
Na   11.71655   28.20650    4.77341 0.7 
Cl   11.71655   31.02715    4.77341 -0.7 
Cl   14.53720    0.00000    4.55643 -0.7 
Na   14.53720    2.82065    4.55643 0.7 
Cl   14.53720    5.64130    4.55643 -0.7 
Na   14.53720    8.46195    4.55643 0.7 
Cl   14.53720   11.28260    4.55643 -0.7 
Na   14.53720   14.10325    4.55643 0.7 
Cl   14.53720   16.92390    4.55643 -0.7 
Na   14.53720   19.74455    4.55643 0.7 
Cl   14.53720   22.56520    4.55643 -0.7 
Na   14.53720   25.38585    4.55643 0.7 
Cl   14.53720   28.20650    4.55643 -0.7 
Na   14.53720   31.02715    4.55643 0.7 
Na   17.35785    0.00000    4.33946 0.7 
Cl   17.35785    2.82065    4.33946 -0.7 
Na   17.35785    5.64130    4.33946 0.7 
Cl   17.35785    8.46195    4.33946 -0.7 
Na   17.35785   11.28260    4.33946 0.7 
Cl   17.35785   14.10325    4.33946 -0.7 
Na   17.35785   16.92390    4.33946 0.7 
Cl   17.35785   19.74455    4.33946 -0.7 
Na   17.35785   22.56520    4.33946 0.7 
Cl   17.35785   25.38585    4.33946 -0.7 
Na   17.35785   28.20650    4.33946 0.7 
Cl   17.35785   31.02715    4.33946 -0.7 
Na   20.17850    0.00000    6.94314 0.7 
Cl   20.17850    2.82065    6.94314 -0.7 
Na   20.17850    5.64130    6.94314 0.7 
Cl   20.17850    8.46195    6.94314 -0.7 
Na   20.17850   11.28260    6.94314 0.7 
Cl   20.17850   14.10325    6.94314 -0.7 
Na   20.17850   16.92390    6.94314 0.7 
Cl   20.17850   19.74455    6.94314 -0.7 
Na   20.17850   22.56520    6.94314 0.7 
Cl   20.17850   25.38585    6.94314 -0.7 
Na   20.17850   28.20650    6.94314 0.7 
Cl   20.17850   31.02715    6.94314 -0.7 
Cl   22.99915    0.00000    6.72617 -0.7 
Na   22.99915    2.82065    6.72617 0.7 
Cl   22.99915    5.64130    6.72617 -0.7 
Na   22.99915    8.46195    6.72617 0.7 
Cl   22.99915   11.28260    6.72617 -0.7 
Na   22.99915   14.10325    6.72617 0.7 
Cl   22.99915   16.92390    6.72617 -0.7 
Na   22.99915   19.74455    6.72617 0.7 
Cl   22.99915   22.56520    6.72617 -0.7 
Na   22.99915   25.38585    6.72617 0.7 
Cl   22.99915   28.20650    6.72617 -0.7 
Na   22.99915   31.02715    6.72617 0.7 
Na   25.81980    0.00000    6.50919 0.7 
Cl   25.81980    2.82065    6.50919 -0.7 
Na   25.81980    5.64130    6.50919 0.7 
Cl   25.81980    8.46195    6.50919 -0.7 
Na   25.81980   11.28260    6.50919 0.7 
Cl   25.81980   14.10325    6.50919 -0.7 
Na   25.81980   16.92390    6.50919 0.7 
Cl   25.81980   19.74455    6.50919 -0.7 
Na   25.81980   22.56520    6.50919 0.7 
Cl   25.81980   25.38585    6.50919 -0.7 
Na   25.81980   28.20650    6.50919 0.7 
Cl   25.81980   31.02715    6.50919 -0.7 
Cl   28.64045    0.00000    6.29222 -0.7 
Na   28.64045    2.82065    6.29222 0.7 
Cl   28.64045    5.64130    6.29222 -0.7 
Na   28.64045    8.46195    6.29222 0.7 
Cl   28.64045   11.28260    6.29222 -0.7 
Na   28.64045   14.10325    6.29222 0.7 
Cl   28.64045   16.92390    6.29222 -0.7 
Na   28.64045   19.74455    6.29222 0.7 
Cl   28.64045   22.56520    6.29222 -0.7 
Na   28.64045   25.38585    6.29222 0.7 
Cl   28.64045   28.20650    6.29222 -0.7 
Na   28.64045   31.02715    6.29222 0.7 
Na   31.46110    0.00000    6.07525 0.7 
Cl   31.46110    2.82065    6.07525 -0.7 
Na   31.46110    5.64130    6.07525 0.7 
Cl   31.46110    8.46195    6.07525 -0.7 
Na   31.46110   11.28260    6.07525 0.7 
Cl   31.46110   14.10325    6.07525 -0.7 
Na   31.46110   16.92390    6.07525 0.7 
Cl   31.46110   19.74455    6.07525 -0.7 
Na   31.46110   22.56520    6.07525 0.7 
Cl   31.46110   25.38585    6.07525 -0.7 
Na   31.46110   28.20650    6.07525 0.7 
Cl   31.46110   31.02715    6.07525 -0.7 
Cl   34.28175    0.00000    5.85827 -0.7 
Na   34.28175    2.82065    5.85827 0.7 
Cl   34.28175    5.64130    5.85827 -0.7 
Na   34.28175    8.46195    5.85827 0.7 
Cl   34.28175   11.28260    5.85827 -0.7 
Na   34.28175   14.10325    5.85827 0.7 
Cl   34.28175   16.92390    5.85827 -0.7 
Na   34.28175   19.74455    5.85827 0.7 
Cl   34.28175   22.56520    5.85827 -0.7 
Na   34.28175   25.38585    5.85827 0.7 
Cl   34.28175   28.20650    5.85827 -0.7 
Na   34.28175   31.02715    5.85827 0.7 
