864
lvs 52.0 0.0 0.0 0.0 32.0 0.0 0.0 0.0 30.0
Cl 2.000000 2.000000 0.000000 -0.70
Na 0.000000 0.000000 0.000000 0.70
Cl 2.000000 2.000000 2.000000 -0.70
Na 0.000000 0.000000 2.000000 0.70
Cl 2.000000 2.000000 4.000000 -0.70
Na 0.000000 0.000000 4.000000 0.70
Cl 2.000000 2.000000 6.000000 -0.70
Na 0.000000 0.000000 6.000000 0.70
Cl 2.000000 2.000000 8.000000 -0.70
Na 0.000000 0.000000 8.000000 0.70
Cl 2.000000 2.000000 10.000000 -0.70
Na 0.000000 0.000000 10.000000 0.70
Cl 2.000000 6.000000 0.000000 -0.70
Na 0.000000 4.000000 0.000000 0.70
Cl 2.000000 6.000000 2.000000 -0.70
Na 0.000000 4.000000 2.000000 0.70
Cl 2.000000 6.000000 4.000000 -0.70
Na 0.000000 4.000000 4.000000 0.70
Cl 2.000000 6.000000 6.000000 -0.70
Na 0.000000 4.000000 6.000000 0.70
Cl 2.000000 6.000000 8.000000 -0.70
Na 0.000000 4.000000 8.000000 0.70
Cl 2.000000 6.000000 10.000000 -0.70
Na 0.000000 4.000000 10.000000 0.70
Cl 2.000000 10.000000 0.000000 -0.70
Na 0.000000 8.000000 0.000000 0.70
Cl 2.000000 10.000000 2.000000 -0.70
Na 0.000000 8.000000 2.000000 0.70
Cl 2.000000 10.000000 4.000000 -0.70
Na 0.000000 8.000000 4.000000 0.70
Cl 2.000000 10.000000 6.000000 -0.70
Na 0.000000 8.000000 6.000000 0.70
Cl 2.000000 10.000000 8.000000 -0.70
Na 0.000000 8.000000 8.000000 0.70
Cl 2.000000 10.000000 10.000000 -0.70
Na 0.000000 8.000000 10.000000 0.70
Cl 2.000000 14.000000 0.000000 -0.70
Na 0.000000 12.000000 0.000000 0.70
Cl 2.000000 14.000000 2.000000 -0.70
Na 0.000000 12.000000 2.000000 0.70
Cl 2.000000 14.000000 4.000000 -0.70
Na 0.000000 12.000000 4.000000 0.70
Cl 2.000000 14.000000 6.000000 -0.70
Na 0.000000 12.000000 6.000000 0.70
Cl 2.000000 14.000000 8.000000 -0.70
Na 0.000000 12.000000 8.000000 0.70
Cl 2.000000 14.000000 10.000000 -0.70
Na 0.000000 12.000000 10.000000 0.70
Cl 2.000000 18.000000 0.000000 -0.70
Na 0.000000 16.000000 0.000000 0.70
Cl 2.000000 18.000000 2.000000 -0.70
Na 0.000000 16.000000 2.000000 0.70
Cl 2.000000 18.000000 4.000000 -0.70
Na 0.000000 16.000000 4.000000 0.70
Cl 2.000000 18.000000 6.000000 -0.70
Na 0.000000 16.000000 6.000000 0.70
Cl 2.000000 18.000000 8.000000 -0.70
Na 0.000000 16.000000 8.000000 0.70
Cl 2.000000 18.000000 10.000000 -0.70
Na 0.000000 16.000000 10.000000 0.70
Cl 2.000000 22.000000 0.000000 -0.70
Na 0.000000 20.000000 0.000000 0.70
Cl 2.000000 22.000000 2.000000 -0.70
Na 0.000000 20.000000 2.000000 0.70
Cl 2.000000 22.000000 4.000000 -0.70
Na 0.000000 20.000000 4.000000 0.70
Cl 2.000000 22.000000 6.000000 -0.70
Na 0.000000 20.000000 6.000000 0.70
Cl 2.000000 22.000000 8.000000 -0.70
Na 0.000000 20.000000 8.000000 0.70
Cl 2.000000 22.000000 10.000000 -0.70
Na 0.000000 20.000000 10.000000 0.70
Cl 2.000000 26.000000 0.000000 -0.70
Na 0.000000 24.000000 0.000000 0.70
Cl 2.000000 26.000000 2.000000 -0.70
Na 0.000000 24.000000 2.000000 0.70
Cl 2.000000 26.000000 4.000000 -0.70
Na 0.000000 24.000000 4.000000 0.70
Cl 2.000000 26.000000 6.000000 -0.70
Na 0.000000 24.000000 6.000000 0.70
Cl 2.000000 26.000000 8.000000 -0.70
Na 0.000000 24.000000 8.000000 0.70
Cl 2.000000 26.000000 10.000000 -0.70
Na 0.000000 24.000000 10.000000 0.70
Cl 2.000000 30.000000 0.000000 -0.70
Na 0.000000 28.000000 0.000000 0.70
Cl 2.000000 30.000000 2.000000 -0.70
Na 0.000000 28.000000 2.000000 0.70
Cl 2.000000 30.000000 4.000000 -0.70
Na 0.000000 28.000000 4.000000 0.70
Cl 2.000000 30.000000 6.000000 -0.70
Na 0.000000 28.000000 6.000000 0.70
Cl 2.000000 30.000000 8.000000 -0.70
Na 0.000000 28.000000 8.000000 0.70
Cl 2.000000 30.000000 10.000000 -0.70
Na 0.000000 28.000000 10.000000 0.70
Cl 6.000000 2.000000 0.000000 -0.70
Na 4.000000 0.000000 0.000000 0.70
Cl 6.000000 2.000000 2.000000 -0.70
Na 4.000000 0.000000 2.000000 0.70
Cl 6.000000 2.000000 4.000000 -0.70
Na 4.000000 0.000000 4.000000 0.70
Cl 6.000000 2.000000 6.000000 -0.70
Na 4.000000 0.000000 6.000000 0.70
Cl 6.000000 2.000000 8.000000 -0.70
Na 4.000000 0.000000 8.000000 0.70
Cl 6.000000 2.000000 10.000000 -0.70
Na 4.000000 0.000000 10.000000 0.70
Cl 6.000000 6.000000 0.000000 -0.70
Na 4.000000 4.000000 0.000000 0.70
Cl 6.000000 6.000000 2.000000 -0.70
Na 4.000000 4.000000 2.000000 0.70
Cl 6.000000 6.000000 4.000000 -0.70
Na 4.000000 4.000000 4.000000 0.70
Cl 6.000000 6.000000 6.000000 -0.70
Na 4.000000 4.000000 6.000000 0.70
Cl 6.000000 6.000000 8.000000 -0.70
Na 4.000000 4.000000 8.000000 0.70
Cl 6.000000 6.000000 10.000000 -0.70
Na 4.000000 4.000000 10.000000 0.70
Cl 6.000000 10.000000 0.000000 -0.70
Na 4.000000 8.000000 0.000000 0.70
Cl 6.000000 10.000000 2.000000 -0.70
Na 4.000000 8.000000 2.000000 0.70
Cl 6.000000 10.000000 4.000000 -0.70
Na 4.000000 8.000000 4.000000 0.70
Cl 6.000000 10.000000 6.000000 -0.70
Na 4.000000 8.000000 6.000000 0.70
Cl 6.000000 10.000000 8.000000 -0.70
Na 4.000000 8.000000 8.000000 0.70
Cl 6.000000 10.000000 10.000000 -0.70
Na 4.000000 8.000000 10.000000 0.70
Cl 6.000000 14.000000 0.000000 -0.70
Na 4.000000 12.000000 0.000000 0.70
Cl 6.000000 14.000000 2.000000 -0.70
Na 4.000000 12.000000 2.000000 0.70
Cl 6.000000 14.000000 4.000000 -0.70
Na 4.000000 12.000000 4.000000 0.70
Cl 6.000000 14.000000 6.000000 -0.70
Na 4.000000 12.000000 6.000000 0.70
Cl 6.000000 14.000000 8.000000 -0.70
Na 4.000000 12.000000 8.000000 0.70
Cl 6.000000 14.000000 10.000000 -0.70
Na 4.000000 12.000000 10.000000 0.70
Cl 6.000000 18.000000 0.000000 -0.70
Na 4.000000 16.000000 0.000000 0.70
Cl 6.000000 18.000000 2.000000 -0.70
Na 4.000000 16.000000 2.000000 0.70
Cl 6.000000 18.000000 4.000000 -0.70
Na 4.000000 16.000000 4.000000 0.70
Cl 6.000000 18.000000 6.000000 -0.70
Na 4.000000 16.000000 6.000000 0.70
Cl 6.000000 18.000000 8.000000 -0.70
Na 4.000000 16.000000 8.000000 0.70
Cl 6.000000 18.000000 10.000000 -0.70
Na 4.000000 16.000000 10.000000 0.70
Cl 6.000000 22.000000 0.000000 -0.70
Na 4.000000 20.000000 0.000000 0.70
Cl 6.000000 22.000000 2.000000 -0.70
Na 4.000000 20.000000 2.000000 0.70
Cl 6.000000 22.000000 4.000000 -0.70
Na 4.000000 20.000000 4.000000 0.70
Cl 6.000000 22.000000 6.000000 -0.70
Na 4.000000 20.000000 6.000000 0.70
Cl 6.000000 22.000000 8.000000 -0.70
Na 4.000000 20.000000 8.000000 0.70
Cl 6.000000 22.000000 10.000000 -0.70
Na 4.000000 20.000000 10.000000 0.70
Cl 6.000000 26.000000 0.000000 -0.70
Na 4.000000 24.000000 0.000000 0.70
Cl 6.000000 26.000000 2.000000 -0.70
Na 4.000000 24.000000 2.000000 0.70
Cl 6.000000 26.000000 4.000000 -0.70
Na 4.000000 24.000000 4.000000 0.70
Cl 6.000000 26.000000 6.000000 -0.70
Na 4.000000 24.000000 6.000000 0.70
Cl 6.000000 26.000000 8.000000 -0.70
Na 4.000000 24.000000 8.000000 0.70
Cl 6.000000 26.000000 10.000000 -0.70
Na 4.000000 24.000000 10.000000 0.70
Cl 6.000000 30.000000 0.000000 -0.70
Na 4.000000 28.000000 0.000000 0.70
Cl 6.000000 30.000000 2.000000 -0.70
Na 4.000000 28.000000 2.000000 0.70
Cl 6.000000 30.000000 4.000000 -0.70
Na 4.000000 28.000000 4.000000 0.70
Cl 6.000000 30.000000 6.000000 -0.70
Na 4.000000 28.000000 6.000000 0.70
Cl 6.000000 30.000000 8.000000 -0.70
Na 4.000000 28.000000 8.000000 0.70
Cl 6.000000 30.000000 10.000000 -0.70
Na 4.000000 28.000000 10.000000 0.70
Cl 10.000000 2.000000 0.000000 -0.70
Na 8.000000 0.000000 0.000000 0.70
Cl 10.000000 2.000000 2.000000 -0.70
Na 8.000000 0.000000 2.000000 0.70
Cl 10.000000 2.000000 4.000000 -0.70
Na 8.000000 0.000000 4.000000 0.70
Cl 10.000000 2.000000 6.000000 -0.70
Na 8.000000 0.000000 6.000000 0.70
Cl 10.000000 2.000000 8.000000 -0.70
Na 8.000000 0.000000 8.000000 0.70
Cl 10.000000 2.000000 10.000000 -0.70
Na 8.000000 0.000000 10.000000 0.70
Cl 10.000000 6.000000 0.000000 -0.70
Na 8.000000 4.000000 0.000000 0.70
Cl 10.000000 6.000000 2.000000 -0.70
Na 8.000000 4.000000 2.000000 0.70
Cl 10.000000 6.000000 4.000000 -0.70
Na 8.000000 4.000000 4.000000 0.70
Cl 10.000000 6.000000 6.000000 -0.70
Na 8.000000 4.000000 6.000000 0.70
Cl 10.000000 6.000000 8.000000 -0.70
Na 8.000000 4.000000 8.000000 0.70
Cl 10.000000 6.000000 10.000000 -0.70
Na 8.000000 4.000000 10.000000 0.70
Cl 10.000000 10.000000 0.000000 -0.70
Na 8.000000 8.000000 0.000000 0.70
Cl 10.000000 10.000000 2.000000 -0.70
Na 8.000000 8.000000 2.000000 0.70
Cl 10.000000 10.000000 4.000000 -0.70
Na 8.000000 8.000000 4.000000 0.70
Cl 10.000000 10.000000 6.000000 -0.70
Na 8.000000 8.000000 6.000000 0.70
Cl 10.000000 10.000000 8.000000 -0.70
Na 8.000000 8.000000 8.000000 0.70
Cl 10.000000 10.000000 10.000000 -0.70
Na 8.000000 8.000000 10.000000 0.70
Cl 10.000000 14.000000 0.000000 -0.70
Na 8.000000 12.000000 0.000000 0.70
Cl 10.000000 14.000000 2.000000 -0.70
Na 8.000000 12.000000 2.000000 0.70
Cl 10.000000 14.000000 4.000000 -0.70
Na 8.000000 12.000000 4.000000 0.70
Cl 10.000000 14.000000 6.000000 -0.70
Na 8.000000 12.000000 6.000000 0.70
Cl 10.000000 14.000000 8.000000 -0.70
Na 8.000000 12.000000 8.000000 0.70
Cl 10.000000 14.000000 10.000000 -0.70
Na 8.000000 12.000000 10.000000 0.70
Cl 10.000000 18.000000 0.000000 -0.70
Na 8.000000 16.000000 0.000000 0.70
Cl 10.000000 18.000000 2.000000 -0.70
Na 8.000000 16.000000 2.000000 0.70
Cl 10.000000 18.000000 4.000000 -0.70
Na 8.000000 16.000000 4.000000 0.70
Cl 10.000000 18.000000 6.000000 -0.70
Na 8.000000 16.000000 6.000000 0.70
Cl 10.000000 18.000000 8.000000 -0.70
Na 8.000000 16.000000 8.000000 0.70
Cl 10.000000 18.000000 10.000000 -0.70
Na 8.000000 16.000000 10.000000 0.70
Cl 10.000000 22.000000 0.000000 -0.70
Na 8.000000 20.000000 0.000000 0.70
Cl 10.000000 22.000000 2.000000 -0.70
Na 8.000000 20.000000 2.000000 0.70
Cl 10.000000 22.000000 4.000000 -0.70
Na 8.000000 20.000000 4.000000 0.70
Cl 10.000000 22.000000 6.000000 -0.70
Na 8.000000 20.000000 6.000000 0.70
Cl 10.000000 22.000000 8.000000 -0.70
Na 8.000000 20.000000 8.000000 0.70
Cl 10.000000 22.000000 10.000000 -0.70
Na 8.000000 20.000000 10.000000 0.70
Cl 10.000000 26.000000 0.000000 -0.70
Na 8.000000 24.000000 0.000000 0.70
Cl 10.000000 26.000000 2.000000 -0.70
Na 8.000000 24.000000 2.000000 0.70
Cl 10.000000 26.000000 4.000000 -0.70
Na 8.000000 24.000000 4.000000 0.70
Cl 10.000000 26.000000 6.000000 -0.70
Na 8.000000 24.000000 6.000000 0.70
Cl 10.000000 26.000000 8.000000 -0.70
Na 8.000000 24.000000 8.000000 0.70
Cl 10.000000 26.000000 10.000000 -0.70
Na 8.000000 24.000000 10.000000 0.70
Cl 10.000000 30.000000 0.000000 -0.70
Na 8.000000 28.000000 0.000000 0.70
Cl 10.000000 30.000000 2.000000 -0.70
Na 8.000000 28.000000 2.000000 0.70
Cl 10.000000 30.000000 4.000000 -0.70
Na 8.000000 28.000000 4.000000 0.70
Cl 10.000000 30.000000 6.000000 -0.70
Na 8.000000 28.000000 6.000000 0.70
Cl 10.000000 30.000000 8.000000 -0.70
Na 8.000000 28.000000 8.000000 0.70
Cl 10.000000 30.000000 10.000000 -0.70
Na 8.000000 28.000000 10.000000 0.70
Cl 14.000000 2.000000 0.000000 -0.70
Na 12.000000 0.000000 0.000000 0.70
Cl 14.000000 2.000000 2.000000 -0.70
Na 12.000000 0.000000 2.000000 0.70
Cl 14.000000 2.000000 4.000000 -0.70
Na 12.000000 0.000000 4.000000 0.70
Cl 14.000000 2.000000 6.000000 -0.70
Na 12.000000 0.000000 6.000000 0.70
Cl 14.000000 2.000000 8.000000 -0.70
Na 12.000000 0.000000 8.000000 0.70
Cl 14.000000 2.000000 10.000000 -0.70
Na 12.000000 0.000000 10.000000 0.70
Cl 14.000000 6.000000 0.000000 -0.70
Na 12.000000 4.000000 0.000000 0.70
Cl 14.000000 6.000000 2.000000 -0.70
Na 12.000000 4.000000 2.000000 0.70
Cl 14.000000 6.000000 4.000000 -0.70
Na 12.000000 4.000000 4.000000 0.70
Cl 14.000000 6.000000 6.000000 -0.70
Na 12.000000 4.000000 6.000000 0.70
Cl 14.000000 6.000000 8.000000 -0.70
Na 12.000000 4.000000 8.000000 0.70
Cl 14.000000 6.000000 10.000000 -0.70
Na 12.000000 4.000000 10.000000 0.70
Cl 14.000000 10.000000 0.000000 -0.70
Na 12.000000 8.000000 0.000000 0.70
Cl 14.000000 10.000000 2.000000 -0.70
Na 12.000000 8.000000 2.000000 0.70
Cl 14.000000 10.000000 4.000000 -0.70
Na 12.000000 8.000000 4.000000 0.70
Cl 14.000000 10.000000 6.000000 -0.70
Na 12.000000 8.000000 6.000000 0.70
Cl 14.000000 10.000000 8.000000 -0.70
Na 12.000000 8.000000 8.000000 0.70
Cl 14.000000 10.000000 10.000000 -0.70
Na 12.000000 8.000000 10.000000 0.70
Cl 14.000000 14.000000 0.000000 -0.70
Na 12.000000 12.000000 0.000000 0.70
Cl 14.000000 14.000000 2.000000 -0.70
Na 12.000000 12.000000 2.000000 0.70
Cl 14.000000 14.000000 4.000000 -0.70
Na 12.000000 12.000000 4.000000 0.70
Cl 14.000000 14.000000 6.000000 -0.70
Na 12.000000 12.000000 6.000000 0.70
Cl 14.000000 14.000000 8.000000 -0.70
Na 12.000000 12.000000 8.000000 0.70
Cl 14.000000 14.000000 10.000000 -0.70
Na 12.000000 12.000000 10.000000 0.70
Cl 14.000000 18.000000 0.000000 -0.70
Na 12.000000 16.000000 0.000000 0.70
Cl 14.000000 18.000000 2.000000 -0.70
Na 12.000000 16.000000 2.000000 0.70
Cl 14.000000 18.000000 4.000000 -0.70
Na 12.000000 16.000000 4.000000 0.70
Cl 14.000000 18.000000 6.000000 -0.70
Na 12.000000 16.000000 6.000000 0.70
Cl 14.000000 18.000000 8.000000 -0.70
Na 12.000000 16.000000 8.000000 0.70
Cl 14.000000 18.000000 10.000000 -0.70
Na 12.000000 16.000000 10.000000 0.70
Cl 14.000000 22.000000 0.000000 -0.70
Na 12.000000 20.000000 0.000000 0.70
Cl 14.000000 22.000000 2.000000 -0.70
Na 12.000000 20.000000 2.000000 0.70
Cl 14.000000 22.000000 4.000000 -0.70
Na 12.000000 20.000000 4.000000 0.70
Cl 14.000000 22.000000 6.000000 -0.70
Na 12.000000 20.000000 6.000000 0.70
Cl 14.000000 22.000000 8.000000 -0.70
Na 12.000000 20.000000 8.000000 0.70
Cl 14.000000 22.000000 10.000000 -0.70
Na 12.000000 20.000000 10.000000 0.70
Cl 14.000000 26.000000 0.000000 -0.70
Na 12.000000 24.000000 0.000000 0.70
Cl 14.000000 26.000000 2.000000 -0.70
Na 12.000000 24.000000 2.000000 0.70
Cl 14.000000 26.000000 4.000000 -0.70
Na 12.000000 24.000000 4.000000 0.70
Cl 14.000000 26.000000 6.000000 -0.70
Na 12.000000 24.000000 6.000000 0.70
Cl 14.000000 26.000000 8.000000 -0.70
Na 12.000000 24.000000 8.000000 0.70
Cl 14.000000 26.000000 10.000000 -0.70
Na 12.000000 24.000000 10.000000 0.70
Cl 14.000000 30.000000 0.000000 -0.70
Na 12.000000 28.000000 0.000000 0.70
Cl 14.000000 30.000000 2.000000 -0.70
Na 12.000000 28.000000 2.000000 0.70
Cl 14.000000 30.000000 4.000000 -0.70
Na 12.000000 28.000000 4.000000 0.70
Cl 14.000000 30.000000 6.000000 -0.70
Na 12.000000 28.000000 6.000000 0.70
Cl 14.000000 30.000000 8.000000 -0.70
Na 12.000000 28.000000 8.000000 0.70
Cl 14.000000 30.000000 10.000000 -0.70
Na 12.000000 28.000000 10.000000 0.70
Cl 18.000000 2.000000 0.000000 -0.70
Na 16.000000 0.000000 0.000000 0.70
Cl 18.000000 2.000000 2.000000 -0.70
Na 16.000000 0.000000 2.000000 0.70
Cl 18.000000 2.000000 4.000000 -0.70
Na 16.000000 0.000000 4.000000 0.70
Cl 18.000000 2.000000 6.000000 -0.70
Na 16.000000 0.000000 6.000000 0.70
Cl 18.000000 2.000000 8.000000 -0.70
Na 16.000000 0.000000 8.000000 0.70
Cl 18.000000 2.000000 10.000000 -0.70
Na 16.000000 0.000000 10.000000 0.70
Cl 18.000000 6.000000 0.000000 -0.70
Na 16.000000 4.000000 0.000000 0.70
Cl 18.000000 6.000000 2.000000 -0.70
Na 16.000000 4.000000 2.000000 0.70
Cl 18.000000 6.000000 4.000000 -0.70
Na 16.000000 4.000000 4.000000 0.70
Cl 18.000000 6.000000 6.000000 -0.70
Na 16.000000 4.000000 6.000000 0.70
Cl 18.000000 6.000000 8.000000 -0.70
Na 16.000000 4.000000 8.000000 0.70
Cl 18.000000 6.000000 10.000000 -0.70
Na 16.000000 4.000000 10.000000 0.70
Cl 18.000000 10.000000 0.000000 -0.70
Na 16.000000 8.000000 0.000000 0.70
Cl 18.000000 10.000000 2.000000 -0.70
Na 16.000000 8.000000 2.000000 0.70
Cl 18.000000 10.000000 4.000000 -0.70
Na 16.000000 8.000000 4.000000 0.70
Cl 18.000000 10.000000 6.000000 -0.70
Na 16.000000 8.000000 6.000000 0.70
Cl 18.000000 10.000000 8.000000 -0.70
Na 16.000000 8.000000 8.000000 0.70
Cl 18.000000 10.000000 10.000000 -0.70
Na 16.000000 8.000000 10.000000 0.70
Cl 18.000000 14.000000 0.000000 -0.70
Na 16.000000 12.000000 0.000000 0.70
Cl 18.000000 14.000000 2.000000 -0.70
Na 16.000000 12.000000 2.000000 0.70
Cl 18.000000 14.000000 4.000000 -0.70
Na 16.000000 12.000000 4.000000 0.70
Cl 18.000000 14.000000 6.000000 -0.70
Na 16.000000 12.000000 6.000000 0.70
Cl 18.000000 14.000000 8.000000 -0.70
Na 16.000000 12.000000 8.000000 0.70
Cl 18.000000 14.000000 10.000000 -0.70
Na 16.000000 12.000000 10.000000 0.70
Cl 18.000000 18.000000 0.000000 -0.70
Na 16.000000 16.000000 0.000000 0.70
Cl 18.000000 18.000000 2.000000 -0.70
Na 16.000000 16.000000 2.000000 0.70
Cl 18.000000 18.000000 4.000000 -0.70
Na 16.000000 16.000000 4.000000 0.70
Cl 18.000000 18.000000 6.000000 -0.70
Na 16.000000 16.000000 6.000000 0.70
Cl 18.000000 18.000000 8.000000 -0.70
Na 16.000000 16.000000 8.000000 0.70
Cl 18.000000 18.000000 10.000000 -0.70
Na 16.000000 16.000000 10.000000 0.70
Cl 18.000000 22.000000 0.000000 -0.70
Na 16.000000 20.000000 0.000000 0.70
Cl 18.000000 22.000000 2.000000 -0.70
Na 16.000000 20.000000 2.000000 0.70
Cl 18.000000 22.000000 4.000000 -0.70
Na 16.000000 20.000000 4.000000 0.70
Cl 18.000000 22.000000 6.000000 -0.70
Na 16.000000 20.000000 6.000000 0.70
Cl 18.000000 22.000000 8.000000 -0.70
Na 16.000000 20.000000 8.000000 0.70
Cl 18.000000 22.000000 10.000000 -0.70
Na 16.000000 20.000000 10.000000 0.70
Cl 18.000000 26.000000 0.000000 -0.70
Na 16.000000 24.000000 0.000000 0.70
Cl 18.000000 26.000000 2.000000 -0.70
Na 16.000000 24.000000 2.000000 0.70
Cl 18.000000 26.000000 4.000000 -0.70
Na 16.000000 24.000000 4.000000 0.70
Cl 18.000000 26.000000 6.000000 -0.70
Na 16.000000 24.000000 6.000000 0.70
Cl 18.000000 26.000000 8.000000 -0.70
Na 16.000000 24.000000 8.000000 0.70
Cl 18.000000 26.000000 10.000000 -0.70
Na 16.000000 24.000000 10.000000 0.70
Cl 18.000000 30.000000 0.000000 -0.70
Na 16.000000 28.000000 0.000000 0.70
Cl 18.000000 30.000000 2.000000 -0.70
Na 16.000000 28.000000 2.000000 0.70
Cl 18.000000 30.000000 4.000000 -0.70
Na 16.000000 28.000000 4.000000 0.70
Cl 18.000000 30.000000 6.000000 -0.70
Na 16.000000 28.000000 6.000000 0.70
Cl 18.000000 30.000000 8.000000 -0.70
Na 16.000000 28.000000 8.000000 0.70
Cl 18.000000 30.000000 10.000000 -0.70
Na 16.000000 28.000000 10.000000 0.70
Cl 22.000000 2.000000 0.000000 -0.70
Na 20.000000 0.000000 0.000000 0.70
Cl 22.000000 2.000000 2.000000 -0.70
Na 20.000000 0.000000 2.000000 0.70
Cl 22.000000 2.000000 4.000000 -0.70
Na 20.000000 0.000000 4.000000 0.70
Cl 22.000000 6.000000 0.000000 -0.70
Na 20.000000 4.000000 0.000000 0.70
Cl 22.000000 6.000000 2.000000 -0.70
Na 20.000000 4.000000 2.000000 0.70
Cl 22.000000 6.000000 4.000000 -0.70
Na 20.000000 4.000000 4.000000 0.70
Cl 22.000000 10.000000 0.000000 -0.70
Na 20.000000 8.000000 0.000000 0.70
Cl 22.000000 10.000000 2.000000 -0.70
Na 20.000000 8.000000 2.000000 0.70
Cl 22.000000 10.000000 4.000000 -0.70
Na 20.000000 8.000000 4.000000 0.70
Cl 22.000000 14.000000 0.000000 -0.70
Na 20.000000 12.000000 0.000000 0.70
Cl 22.000000 14.000000 2.000000 -0.70
Na 20.000000 12.000000 2.000000 0.70
Cl 22.000000 14.000000 4.000000 -0.70
Na 20.000000 12.000000 4.000000 0.70
Cl 22.000000 18.000000 0.000000 -0.70
Na 20.000000 16.000000 0.000000 0.70
Cl 22.000000 18.000000 2.000000 -0.70
Na 20.000000 16.000000 2.000000 0.70
Cl 22.000000 18.000000 4.000000 -0.70
Na 20.000000 16.000000 4.000000 0.70
Cl 22.000000 22.000000 0.000000 -0.70
Na 20.000000 20.000000 0.000000 0.70
Cl 22.000000 22.000000 2.000000 -0.70
Na 20.000000 20.000000 2.000000 0.70
Cl 22.000000 22.000000 4.000000 -0.70
Na 20.000000 20.000000 4.000000 0.70
Cl 22.000000 26.000000 0.000000 -0.70
Na 20.000000 24.000000 0.000000 0.70
Cl 22.000000 26.000000 2.000000 -0.70
Na 20.000000 24.000000 2.000000 0.70
Cl 22.000000 26.000000 4.000000 -0.70
Na 20.000000 24.000000 4.000000 0.70
Cl 22.000000 30.000000 0.000000 -0.70
Na 20.000000 28.000000 0.000000 0.70
Cl 22.000000 30.000000 2.000000 -0.70
Na 20.000000 28.000000 2.000000 0.70
Cl 22.000000 30.000000 4.000000 -0.70
Na 20.000000 28.000000 4.000000 0.70
Cl 26.000000 2.000000 0.000000 -0.70
Na 24.000000 0.000000 0.000000 0.70
Cl 26.000000 2.000000 2.000000 -0.70
Na 24.000000 0.000000 2.000000 0.70
Cl 26.000000 2.000000 4.000000 -0.70
Na 24.000000 0.000000 4.000000 0.70
Cl 26.000000 6.000000 0.000000 -0.70
Na 24.000000 4.000000 0.000000 0.70
Cl 26.000000 6.000000 2.000000 -0.70
Na 24.000000 4.000000 2.000000 0.70
Cl 26.000000 6.000000 4.000000 -0.70
Na 24.000000 4.000000 4.000000 0.70
Cl 26.000000 10.000000 0.000000 -0.70
Na 24.000000 8.000000 0.000000 0.70
Cl 26.000000 10.000000 2.000000 -0.70
Na 24.000000 8.000000 2.000000 0.70
Cl 26.000000 10.000000 4.000000 -0.70
Na 24.000000 8.000000 4.000000 0.70
Cl 26.000000 14.000000 0.000000 -0.70
Na 24.000000 12.000000 0.000000 0.70
Cl 26.000000 14.000000 2.000000 -0.70
Na 24.000000 12.000000 2.000000 0.70
Cl 26.000000 14.000000 4.000000 -0.70
Na 24.000000 12.000000 4.000000 0.70
Cl 26.000000 18.000000 0.000000 -0.70
Na 24.000000 16.000000 0.000000 0.70
Cl 26.000000 18.000000 2.000000 -0.70
Na 24.000000 16.000000 2.000000 0.70
Cl 26.000000 18.000000 4.000000 -0.70
Na 24.000000 16.000000 4.000000 0.70
Cl 26.000000 22.000000 0.000000 -0.70
Na 24.000000 20.000000 0.000000 0.70
Cl 26.000000 22.000000 2.000000 -0.70
Na 24.000000 20.000000 2.000000 0.70
Cl 26.000000 22.000000 4.000000 -0.70
Na 24.000000 20.000000 4.000000 0.70
Cl 26.000000 26.000000 0.000000 -0.70
Na 24.000000 24.000000 0.000000 0.70
Cl 26.000000 26.000000 2.000000 -0.70
Na 24.000000 24.000000 2.000000 0.70
Cl 26.000000 26.000000 4.000000 -0.70
Na 24.000000 24.000000 4.000000 0.70
Cl 26.000000 30.000000 0.000000 -0.70
Na 24.000000 28.000000 0.000000 0.70
Cl 26.000000 30.000000 2.000000 -0.70
Na 24.000000 28.000000 2.000000 0.70
Cl 26.000000 30.000000 4.000000 -0.70
Na 24.000000 28.000000 4.000000 0.70
Cl 30.000000 2.000000 0.000000 -0.70
Na 28.000000 0.000000 0.000000 0.70
Cl 30.000000 2.000000 2.000000 -0.70
Na 28.000000 0.000000 2.000000 0.70
Cl 30.000000 2.000000 4.000000 -0.70
Na 28.000000 0.000000 4.000000 0.70
Cl 30.000000 6.000000 0.000000 -0.70
Na 28.000000 4.000000 0.000000 0.70
Cl 30.000000 6.000000 2.000000 -0.70
Na 28.000000 4.000000 2.000000 0.70
Cl 30.000000 6.000000 4.000000 -0.70
Na 28.000000 4.000000 4.000000 0.70
Cl 30.000000 10.000000 0.000000 -0.70
Na 28.000000 8.000000 0.000000 0.70
Cl 30.000000 10.000000 2.000000 -0.70
Na 28.000000 8.000000 2.000000 0.70
Cl 30.000000 10.000000 4.000000 -0.70
Na 28.000000 8.000000 4.000000 0.70
Cl 30.000000 14.000000 0.000000 -0.70
Na 28.000000 12.000000 0.000000 0.70
Cl 30.000000 14.000000 2.000000 -0.70
Na 28.000000 12.000000 2.000000 0.70
Cl 30.000000 14.000000 4.000000 -0.70
Na 28.000000 12.000000 4.000000 0.70
Cl 30.000000 18.000000 0.000000 -0.70
Na 28.000000 16.000000 0.000000 0.70
Cl 30.000000 18.000000 2.000000 -0.70
Na 28.000000 16.000000 2.000000 0.70
Cl 30.000000 18.000000 4.000000 -0.70
Na 28.000000 16.000000 4.000000 0.70
Cl 30.000000 22.000000 0.000000 -0.70
Na 28.000000 20.000000 0.000000 0.70
Cl 30.000000 22.000000 2.000000 -0.70
Na 28.000000 20.000000 2.000000 0.70
Cl 30.000000 22.000000 4.000000 -0.70
Na 28.000000 20.000000 4.000000 0.70
Cl 30.000000 26.000000 0.000000 -0.70
Na 28.000000 24.000000 0.000000 0.70
Cl 30.000000 26.000000 2.000000 -0.70
Na 28.000000 24.000000 2.000000 0.70
Cl 30.000000 26.000000 4.000000 -0.70
Na 28.000000 24.000000 4.000000 0.70
Cl 30.000000 30.000000 0.000000 -0.70
Na 28.000000 28.000000 0.000000 0.70
Cl 30.000000 30.000000 2.000000 -0.70
Na 28.000000 28.000000 2.000000 0.70
Cl 30.000000 30.000000 4.000000 -0.70
Na 28.000000 28.000000 4.000000 0.70
Cl 34.000000 2.000000 0.000000 -0.70
Na 32.000000 0.000000 0.000000 0.70
Cl 34.000000 2.000000 2.000000 -0.70
Na 32.000000 0.000000 2.000000 0.70
Cl 34.000000 2.000000 4.000000 -0.70
Na 32.000000 0.000000 4.000000 0.70
Cl 34.000000 6.000000 0.000000 -0.70
Na 32.000000 4.000000 0.000000 0.70
Cl 34.000000 6.000000 2.000000 -0.70
Na 32.000000 4.000000 2.000000 0.70
Cl 34.000000 6.000000 4.000000 -0.70
Na 32.000000 4.000000 4.000000 0.70
Cl 34.000000 10.000000 0.000000 -0.70
Na 32.000000 8.000000 0.000000 0.70
Cl 34.000000 10.000000 2.000000 -0.70
Na 32.000000 8.000000 2.000000 0.70
Cl 34.000000 10.000000 4.000000 -0.70
Na 32.000000 8.000000 4.000000 0.70
Cl 34.000000 14.000000 0.000000 -0.70
Na 32.000000 12.000000 0.000000 0.70
Cl 34.000000 14.000000 2.000000 -0.70
Na 32.000000 12.000000 2.000000 0.70
Cl 34.000000 14.000000 4.000000 -0.70
Na 32.000000 12.000000 4.000000 0.70
Cl 34.000000 18.000000 0.000000 -0.70
Na 32.000000 16.000000 0.000000 0.70
Cl 34.000000 18.000000 2.000000 -0.70
Na 32.000000 16.000000 2.000000 0.70
Cl 34.000000 18.000000 4.000000 -0.70
Na 32.000000 16.000000 4.000000 0.70
Cl 34.000000 22.000000 0.000000 -0.70
Na 32.000000 20.000000 0.000000 0.70
Cl 34.000000 22.000000 2.000000 -0.70
Na 32.000000 20.000000 2.000000 0.70
Cl 34.000000 22.000000 4.000000 -0.70
Na 32.000000 20.000000 4.000000 0.70
Cl 34.000000 26.000000 0.000000 -0.70
Na 32.000000 24.000000 0.000000 0.70
Cl 34.000000 26.000000 2.000000 -0.70
Na 32.000000 24.000000 2.000000 0.70
Cl 34.000000 26.000000 4.000000 -0.70
Na 32.000000 24.000000 4.000000 0.70
Cl 34.000000 30.000000 0.000000 -0.70
Na 32.000000 28.000000 0.000000 0.70
Cl 34.000000 30.000000 2.000000 -0.70
Na 32.000000 28.000000 2.000000 0.70
Cl 34.000000 30.000000 4.000000 -0.70
Na 32.000000 28.000000 4.000000 0.70
Cl 38.000000 2.000000 0.000000 -0.70
Na 36.000000 0.000000 0.000000 0.70
Cl 38.000000 2.000000 2.000000 -0.70
Na 36.000000 0.000000 2.000000 0.70
Cl 38.000000 2.000000 4.000000 -0.70
Na 36.000000 0.000000 4.000000 0.70
Cl 38.000000 6.000000 0.000000 -0.70
Na 36.000000 4.000000 0.000000 0.70
Cl 38.000000 6.000000 2.000000 -0.70
Na 36.000000 4.000000 2.000000 0.70
Cl 38.000000 6.000000 4.000000 -0.70
Na 36.000000 4.000000 4.000000 0.70
Cl 38.000000 10.000000 0.000000 -0.70
Na 36.000000 8.000000 0.000000 0.70
Cl 38.000000 10.000000 2.000000 -0.70
Na 36.000000 8.000000 2.000000 0.70
Cl 38.000000 10.000000 4.000000 -0.70
Na 36.000000 8.000000 4.000000 0.70
Cl 38.000000 14.000000 0.000000 -0.70
Na 36.000000 12.000000 0.000000 0.70
Cl 38.000000 14.000000 2.000000 -0.70
Na 36.000000 12.000000 2.000000 0.70
Cl 38.000000 14.000000 4.000000 -0.70
Na 36.000000 12.000000 4.000000 0.70
Cl 38.000000 18.000000 0.000000 -0.70
Na 36.000000 16.000000 0.000000 0.70
Cl 38.000000 18.000000 2.000000 -0.70
Na 36.000000 16.000000 2.000000 0.70
Cl 38.000000 18.000000 4.000000 -0.70
Na 36.000000 16.000000 4.000000 0.70
Cl 38.000000 22.000000 0.000000 -0.70
Na 36.000000 20.000000 0.000000 0.70
Cl 38.000000 22.000000 2.000000 -0.70
Na 36.000000 20.000000 2.000000 0.70
Cl 38.000000 22.000000 4.000000 -0.70
Na 36.000000 20.000000 4.000000 0.70
Cl 38.000000 26.000000 0.000000 -0.70
Na 36.000000 24.000000 0.000000 0.70
Cl 38.000000 26.000000 2.000000 -0.70
Na 36.000000 24.000000 2.000000 0.70
Cl 38.000000 26.000000 4.000000 -0.70
Na 36.000000 24.000000 4.000000 0.70
Cl 38.000000 30.000000 0.000000 -0.70
Na 36.000000 28.000000 0.000000 0.70
Cl 38.000000 30.000000 2.000000 -0.70
Na 36.000000 28.000000 2.000000 0.70
Cl 38.000000 30.000000 4.000000 -0.70
Na 36.000000 28.000000 4.000000 0.70
Cl 42.000000 2.000000 0.000000 -0.70
Na 40.000000 0.000000 0.000000 0.70
Cl 42.000000 2.000000 2.000000 -0.70
Na 40.000000 0.000000 2.000000 0.70
Cl 42.000000 2.000000 4.000000 -0.70
Na 40.000000 0.000000 4.000000 0.70
Cl 42.000000 6.000000 0.000000 -0.70
Na 40.000000 4.000000 0.000000 0.70
Cl 42.000000 6.000000 2.000000 -0.70
Na 40.000000 4.000000 2.000000 0.70
Cl 42.000000 6.000000 4.000000 -0.70
Na 40.000000 4.000000 4.000000 0.70
Cl 42.000000 10.000000 0.000000 -0.70
Na 40.000000 8.000000 0.000000 0.70
Cl 42.000000 10.000000 2.000000 -0.70
Na 40.000000 8.000000 2.000000 0.70
Cl 42.000000 10.000000 4.000000 -0.70
Na 40.000000 8.000000 4.000000 0.70
Cl 42.000000 14.000000 0.000000 -0.70
Na 40.000000 12.000000 0.000000 0.70
Cl 42.000000 14.000000 2.000000 -0.70
Na 40.000000 12.000000 2.000000 0.70
Cl 42.000000 14.000000 4.000000 -0.70
Na 40.000000 12.000000 4.000000 0.70
Cl 42.000000 18.000000 0.000000 -0.70
Na 40.000000 16.000000 0.000000 0.70
Cl 42.000000 18.000000 2.000000 -0.70
Na 40.000000 16.000000 2.000000 0.70
Cl 42.000000 18.000000 4.000000 -0.70
Na 40.000000 16.000000 4.000000 0.70
Cl 42.000000 22.000000 0.000000 -0.70
Na 40.000000 20.000000 0.000000 0.70
Cl 42.000000 22.000000 2.000000 -0.70
Na 40.000000 20.000000 2.000000 0.70
Cl 42.000000 22.000000 4.000000 -0.70
Na 40.000000 20.000000 4.000000 0.70
Cl 42.000000 26.000000 0.000000 -0.70
Na 40.000000 24.000000 0.000000 0.70
Cl 42.000000 26.000000 2.000000 -0.70
Na 40.000000 24.000000 2.000000 0.70
Cl 42.000000 26.000000 4.000000 -0.70
Na 40.000000 24.000000 4.000000 0.70
Cl 42.000000 30.000000 0.000000 -0.70
Na 40.000000 28.000000 0.000000 0.70
Cl 42.000000 30.000000 2.000000 -0.70
Na 40.000000 28.000000 2.000000 0.70
Cl 42.000000 30.000000 4.000000 -0.70
Na 40.000000 28.000000 4.000000 0.70
Cl 46.000000 2.000000 0.000000 -0.70
Na 44.000000 0.000000 0.000000 0.70
Cl 46.000000 2.000000 2.000000 -0.70
Na 44.000000 0.000000 2.000000 0.70
Cl 46.000000 2.000000 4.000000 -0.70
Na 44.000000 0.000000 4.000000 0.70
Cl 46.000000 6.000000 0.000000 -0.70
Na 44.000000 4.000000 0.000000 0.70
Cl 46.000000 6.000000 2.000000 -0.70
Na 44.000000 4.000000 2.000000 0.70
Cl 46.000000 6.000000 4.000000 -0.70
Na 44.000000 4.000000 4.000000 0.70
Cl 46.000000 10.000000 0.000000 -0.70
Na 44.000000 8.000000 0.000000 0.70
Cl 46.000000 10.000000 2.000000 -0.70
Na 44.000000 8.000000 2.000000 0.70
Cl 46.000000 10.000000 4.000000 -0.70
Na 44.000000 8.000000 4.000000 0.70
Cl 46.000000 14.000000 0.000000 -0.70
Na 44.000000 12.000000 0.000000 0.70
Cl 46.000000 14.000000 2.000000 -0.70
Na 44.000000 12.000000 2.000000 0.70
Cl 46.000000 14.000000 4.000000 -0.70
Na 44.000000 12.000000 4.000000 0.70
Cl 46.000000 18.000000 0.000000 -0.70
Na 44.000000 16.000000 0.000000 0.70
Cl 46.000000 18.000000 2.000000 -0.70
Na 44.000000 16.000000 2.000000 0.70
Cl 46.000000 18.000000 4.000000 -0.70
Na 44.000000 16.000000 4.000000 0.70
Cl 46.000000 22.000000 0.000000 -0.70
Na 44.000000 20.000000 0.000000 0.70
Cl 46.000000 22.000000 2.000000 -0.70
Na 44.000000 20.000000 2.000000 0.70
Cl 46.000000 22.000000 4.000000 -0.70
Na 44.000000 20.000000 4.000000 0.70
Cl 46.000000 26.000000 0.000000 -0.70
Na 44.000000 24.000000 0.000000 0.70
Cl 46.000000 26.000000 2.000000 -0.70
Na 44.000000 24.000000 2.000000 0.70
Cl 46.000000 26.000000 4.000000 -0.70
Na 44.000000 24.000000 4.000000 0.70
Cl 46.000000 30.000000 0.000000 -0.70
Na 44.000000 28.000000 0.000000 0.70
Cl 46.000000 30.000000 2.000000 -0.70
Na 44.000000 28.000000 2.000000 0.70
Cl 46.000000 30.000000 4.000000 -0.70
Na 44.000000 28.000000 4.000000 0.70
Cl 50.000000 2.000000 0.000000 -0.70
Na 48.000000 0.000000 0.000000 0.70
Cl 50.000000 2.000000 2.000000 -0.70
Na 48.000000 0.000000 2.000000 0.70
Cl 50.000000 2.000000 4.000000 -0.70
Na 48.000000 0.000000 4.000000 0.70
Cl 50.000000 6.000000 0.000000 -0.70
Na 48.000000 4.000000 0.000000 0.70
Cl 50.000000 6.000000 2.000000 -0.70
Na 48.000000 4.000000 2.000000 0.70
Cl 50.000000 6.000000 4.000000 -0.70
Na 48.000000 4.000000 4.000000 0.70
Cl 50.000000 10.000000 0.000000 -0.70
Na 48.000000 8.000000 0.000000 0.70
Cl 50.000000 10.000000 2.000000 -0.70
Na 48.000000 8.000000 2.000000 0.70
Cl 50.000000 10.000000 4.000000 -0.70
Na 48.000000 8.000000 4.000000 0.70
Cl 50.000000 14.000000 0.000000 -0.70
Na 48.000000 12.000000 0.000000 0.70
Cl 50.000000 14.000000 2.000000 -0.70
Na 48.000000 12.000000 2.000000 0.70
Cl 50.000000 14.000000 4.000000 -0.70
Na 48.000000 12.000000 4.000000 0.70
Cl 50.000000 18.000000 0.000000 -0.70
Na 48.000000 16.000000 0.000000 0.70
Cl 50.000000 18.000000 2.000000 -0.70
Na 48.000000 16.000000 2.000000 0.70
Cl 50.000000 18.000000 4.000000 -0.70
Na 48.000000 16.000000 4.000000 0.70
Cl 50.000000 22.000000 0.000000 -0.70
Na 48.000000 20.000000 0.000000 0.70
Cl 50.000000 22.000000 2.000000 -0.70
Na 48.000000 20.000000 2.000000 0.70
Cl 50.000000 22.000000 4.000000 -0.70
Na 48.000000 20.000000 4.000000 0.70
Cl 50.000000 26.000000 0.000000 -0.70
Na 48.000000 24.000000 0.000000 0.70
Cl 50.000000 26.000000 2.000000 -0.70
Na 48.000000 24.000000 2.000000 0.70
Cl 50.000000 26.000000 4.000000 -0.70
Na 48.000000 24.000000 4.000000 0.70
Cl 50.000000 30.000000 0.000000 -0.70
Na 48.000000 28.000000 0.000000 0.70
Cl 50.000000 30.000000 2.000000 -0.70
Na 48.000000 28.000000 2.000000 0.70
Cl 50.000000 30.000000 4.000000 -0.70
Na 48.000000 28.000000 4.000000 0.70
