54
lvs 12.000  0.000  0.000    0.000 12.000  0.000    0.000  0.000 20.000
Na 0.000000 0.000000 -3.250000 0.70000
Na 4.000000 0.000000 -3.250000 0.70000
Na 8.000000 0.000000 -3.250000 0.70000
Cl 2.000000 2.000000 -3.250000 -0.70000
Cl 6.000000 2.000000 -3.250000 -0.70000
Cl 10.000000 2.000000 -3.250000 -0.70000
Na 0.000000 4.000000 -3.250000 0.70000
Na 4.000000 4.000000 -3.250000 0.70000
Na 8.000000 4.000000 -3.250000 0.70000
Cl 2.000000 6.000000 -3.250000 -0.70000
Cl 6.000000 6.000000 -3.250000 -0.70000
Cl 10.000000 6.000000 -3.250000 -0.70000
Na 0.000000 8.000000 -3.250000 0.70000
Na 4.000000 8.000000 -3.250000 0.70000
Na 8.000000 8.000000 -3.250000 0.70000
Cl 2.000000 10.000000 -3.250000 -0.70000
Cl 6.000000 10.000000 -3.250000 -0.70000
Cl 10.000000 10.000000 -3.250000 -0.70000
Cl 0.000000 0.000000 -6.078427 -0.70000
Cl 4.000000 0.000000 -6.078427 -0.70000
Cl 8.000000 0.000000 -6.078427 -0.70000
Na 2.000000 2.000000 -6.078427 0.70000
Na 6.000000 2.000000 -6.078427 0.70000
Na 10.000000 2.000000 -6.078427 0.70000
Cl 0.000000 4.000000 -6.078427 -0.70000
Cl 4.000000 4.000000 -6.078427 -0.70000
Cl 8.000000 4.000000 -6.078427 -0.70000
Na 2.000000 6.000000 -6.078427 0.70000
Na 6.000000 6.000000 -6.078427 0.70000
Na 10.000000 6.000000 -6.078427 0.70000
Cl 0.000000 8.000000 -6.078427 -0.70000
Cl 4.000000 8.000000 -6.078427 -0.70000
Cl 8.000000 8.000000 -6.078427 -0.70000
Na 2.000000 10.000000 -6.078427 0.70000
Na 6.000000 10.000000 -6.078427 0.70000
Na 10.000000 10.000000 -6.078427 0.70000
Na 0.000000 0.000000 -8.906854 0.70000
Na 4.000000 0.000000 -8.906854 0.70000
Na 8.000000 0.000000 -8.906854 0.70000
Cl 2.000000 2.000000 -8.906854 -0.70000
Cl 6.000000 2.000000 -8.906854 -0.70000
Cl 10.000000 2.000000 -8.906854 -0.70000
Na 0.000000 4.000000 -8.906854 0.70000
Na 4.000000 4.000000 -8.906854 0.70000
Na 8.000000 4.000000 -8.906854 0.70000
Cl 2.000000 6.000000 -8.906854 -0.70000
Cl 6.000000 6.000000 -8.906854 -0.70000
Cl 10.000000 6.000000 -8.906854 -0.70000
Na 0.000000 8.000000 -8.906854 0.70000
Na 4.000000 8.000000 -8.906854 0.70000
Na 8.000000 8.000000 -8.906854 0.70000
Cl 2.000000 10.000000 -8.906854 -0.70000
Cl 6.000000 10.000000 -8.906854 -0.70000
Cl 10.000000 10.000000 -8.906854 -0.70000