864
lvs 48.000  0.000  0.000    0.000 48.000  0.000    0.000  0.000 20.000
Na 0.000000 0.000000 -3.250000 0.70000
Na 4.000000 0.000000 -3.250000 0.70000
Na 8.000000 0.000000 -3.250000 0.70000
Na 12.000000 0.000000 -3.250000 0.70000
Na 16.000000 0.000000 -3.250000 0.70000
Na 20.000000 0.000000 -3.250000 0.70000
Na 24.000000 0.000000 -3.250000 0.70000
Na 28.000000 0.000000 -3.250000 0.70000
Na 32.000000 0.000000 -3.250000 0.70000
Na 36.000000 0.000000 -3.250000 0.70000
Na 40.000000 0.000000 -3.250000 0.70000
Na 44.000000 0.000000 -3.250000 0.70000
Cl 2.000000 2.000000 -3.250000 -0.70000
Cl 6.000000 2.000000 -3.250000 -0.70000
Cl 10.000000 2.000000 -3.250000 -0.70000
Cl 14.000000 2.000000 -3.250000 -0.70000
Cl 18.000000 2.000000 -3.250000 -0.70000
Cl 22.000000 2.000000 -3.250000 -0.70000
Cl 26.000000 2.000000 -3.250000 -0.70000
Cl 30.000000 2.000000 -3.250000 -0.70000
Cl 34.000000 2.000000 -3.250000 -0.70000
Cl 38.000000 2.000000 -3.250000 -0.70000
Cl 42.000000 2.000000 -3.250000 -0.70000
Cl 46.000000 2.000000 -3.250000 -0.70000
Na 0.000000 4.000000 -3.250000 0.70000
Na 4.000000 4.000000 -3.250000 0.70000
Na 8.000000 4.000000 -3.250000 0.70000
Na 12.000000 4.000000 -3.250000 0.70000
Na 16.000000 4.000000 -3.250000 0.70000
Na 20.000000 4.000000 -3.250000 0.70000
Na 24.000000 4.000000 -3.250000 0.70000
Na 28.000000 4.000000 -3.250000 0.70000
Na 32.000000 4.000000 -3.250000 0.70000
Na 36.000000 4.000000 -3.250000 0.70000
Na 40.000000 4.000000 -3.250000 0.70000
Na 44.000000 4.000000 -3.250000 0.70000
Cl 2.000000 6.000000 -3.250000 -0.70000
Cl 6.000000 6.000000 -3.250000 -0.70000
Cl 10.000000 6.000000 -3.250000 -0.70000
Cl 14.000000 6.000000 -3.250000 -0.70000
Cl 18.000000 6.000000 -3.250000 -0.70000
Cl 22.000000 6.000000 -3.250000 -0.70000
Cl 26.000000 6.000000 -3.250000 -0.70000
Cl 30.000000 6.000000 -3.250000 -0.70000
Cl 34.000000 6.000000 -3.250000 -0.70000
Cl 38.000000 6.000000 -3.250000 -0.70000
Cl 42.000000 6.000000 -3.250000 -0.70000
Cl 46.000000 6.000000 -3.250000 -0.70000
Na 0.000000 8.000000 -3.250000 0.70000
Na 4.000000 8.000000 -3.250000 0.70000
Na 8.000000 8.000000 -3.250000 0.70000
Na 12.000000 8.000000 -3.250000 0.70000
Na 16.000000 8.000000 -3.250000 0.70000
Na 20.000000 8.000000 -3.250000 0.70000
Na 24.000000 8.000000 -3.250000 0.70000
Na 28.000000 8.000000 -3.250000 0.70000
Na 32.000000 8.000000 -3.250000 0.70000
Na 36.000000 8.000000 -3.250000 0.70000
Na 40.000000 8.000000 -3.250000 0.70000
Na 44.000000 8.000000 -3.250000 0.70000
Cl 2.000000 10.000000 -3.250000 -0.70000
Cl 6.000000 10.000000 -3.250000 -0.70000
Cl 10.000000 10.000000 -3.250000 -0.70000
Cl 14.000000 10.000000 -3.250000 -0.70000
Cl 18.000000 10.000000 -3.250000 -0.70000
Cl 22.000000 10.000000 -3.250000 -0.70000
Cl 26.000000 10.000000 -3.250000 -0.70000
Cl 30.000000 10.000000 -3.250000 -0.70000
Cl 34.000000 10.000000 -3.250000 -0.70000
Cl 38.000000 10.000000 -3.250000 -0.70000
Cl 42.000000 10.000000 -3.250000 -0.70000
Cl 46.000000 10.000000 -3.250000 -0.70000
Na 0.000000 12.000000 -3.250000 0.70000
Na 4.000000 12.000000 -3.250000 0.70000
Na 8.000000 12.000000 -3.250000 0.70000
Na 12.000000 12.000000 -3.250000 0.70000
Na 16.000000 12.000000 -3.250000 0.70000
Na 20.000000 12.000000 -3.250000 0.70000
Na 24.000000 12.000000 -3.250000 0.70000
Na 28.000000 12.000000 -3.250000 0.70000
Na 32.000000 12.000000 -3.250000 0.70000
Na 36.000000 12.000000 -3.250000 0.70000
Na 40.000000 12.000000 -3.250000 0.70000
Na 44.000000 12.000000 -3.250000 0.70000
Cl 2.000000 14.000000 -3.250000 -0.70000
Cl 6.000000 14.000000 -3.250000 -0.70000
Cl 10.000000 14.000000 -3.250000 -0.70000
Cl 14.000000 14.000000 -3.250000 -0.70000
Cl 18.000000 14.000000 -3.250000 -0.70000
Cl 22.000000 14.000000 -3.250000 -0.70000
Cl 26.000000 14.000000 -3.250000 -0.70000
Cl 30.000000 14.000000 -3.250000 -0.70000
Cl 34.000000 14.000000 -3.250000 -0.70000
Cl 38.000000 14.000000 -3.250000 -0.70000
Cl 42.000000 14.000000 -3.250000 -0.70000
Cl 46.000000 14.000000 -3.250000 -0.70000
Na 0.000000 16.000000 -3.250000 0.70000
Na 4.000000 16.000000 -3.250000 0.70000
Na 8.000000 16.000000 -3.250000 0.70000
Na 12.000000 16.000000 -3.250000 0.70000
Na 16.000000 16.000000 -3.250000 0.70000
Na 20.000000 16.000000 -3.250000 0.70000
Na 24.000000 16.000000 -3.250000 0.70000
Na 28.000000 16.000000 -3.250000 0.70000
Na 32.000000 16.000000 -3.250000 0.70000
Na 36.000000 16.000000 -3.250000 0.70000
Na 40.000000 16.000000 -3.250000 0.70000
Na 44.000000 16.000000 -3.250000 0.70000
Cl 2.000000 18.000000 -3.250000 -0.70000
Cl 6.000000 18.000000 -3.250000 -0.70000
Cl 10.000000 18.000000 -3.250000 -0.70000
Cl 14.000000 18.000000 -3.250000 -0.70000
Cl 18.000000 18.000000 -3.250000 -0.70000
Cl 22.000000 18.000000 -3.250000 -0.70000
Cl 26.000000 18.000000 -3.250000 -0.70000
Cl 30.000000 18.000000 -3.250000 -0.70000
Cl 34.000000 18.000000 -3.250000 -0.70000
Cl 38.000000 18.000000 -3.250000 -0.70000
Cl 42.000000 18.000000 -3.250000 -0.70000
Cl 46.000000 18.000000 -3.250000 -0.70000
Na 0.000000 20.000000 -3.250000 0.70000
Na 4.000000 20.000000 -3.250000 0.70000
Na 8.000000 20.000000 -3.250000 0.70000
Na 12.000000 20.000000 -3.250000 0.70000
Na 16.000000 20.000000 -3.250000 0.70000
Na 20.000000 20.000000 -3.250000 0.70000
Na 24.000000 20.000000 -3.250000 0.70000
Na 28.000000 20.000000 -3.250000 0.70000
Na 32.000000 20.000000 -3.250000 0.70000
Na 36.000000 20.000000 -3.250000 0.70000
Na 40.000000 20.000000 -3.250000 0.70000
Na 44.000000 20.000000 -3.250000 0.70000
Cl 2.000000 22.000000 -3.250000 -0.70000
Cl 6.000000 22.000000 -3.250000 -0.70000
Cl 10.000000 22.000000 -3.250000 -0.70000
Cl 14.000000 22.000000 -3.250000 -0.70000
Cl 18.000000 22.000000 -3.250000 -0.70000
Cl 22.000000 22.000000 -3.250000 -0.70000
Cl 26.000000 22.000000 -3.250000 -0.70000
Cl 30.000000 22.000000 -3.250000 -0.70000
Cl 34.000000 22.000000 -3.250000 -0.70000
Cl 38.000000 22.000000 -3.250000 -0.70000
Cl 42.000000 22.000000 -3.250000 -0.70000
Cl 46.000000 22.000000 -3.250000 -0.70000
Na 0.000000 24.000000 -3.250000 0.70000
Na 4.000000 24.000000 -3.250000 0.70000
Na 8.000000 24.000000 -3.250000 0.70000
Na 12.000000 24.000000 -3.250000 0.70000
Na 16.000000 24.000000 -3.250000 0.70000
Na 20.000000 24.000000 -3.250000 0.70000
Na 24.000000 24.000000 -3.250000 0.70000
Na 28.000000 24.000000 -3.250000 0.70000
Na 32.000000 24.000000 -3.250000 0.70000
Na 36.000000 24.000000 -3.250000 0.70000
Na 40.000000 24.000000 -3.250000 0.70000
Na 44.000000 24.000000 -3.250000 0.70000
Cl 2.000000 26.000000 -3.250000 -0.70000
Cl 6.000000 26.000000 -3.250000 -0.70000
Cl 10.000000 26.000000 -3.250000 -0.70000
Cl 14.000000 26.000000 -3.250000 -0.70000
Cl 18.000000 26.000000 -3.250000 -0.70000
Cl 22.000000 26.000000 -3.250000 -0.70000
Cl 26.000000 26.000000 -3.250000 -0.70000
Cl 30.000000 26.000000 -3.250000 -0.70000
Cl 34.000000 26.000000 -3.250000 -0.70000
Cl 38.000000 26.000000 -3.250000 -0.70000
Cl 42.000000 26.000000 -3.250000 -0.70000
Cl 46.000000 26.000000 -3.250000 -0.70000
Na 0.000000 28.000000 -3.250000 0.70000
Na 4.000000 28.000000 -3.250000 0.70000
Na 8.000000 28.000000 -3.250000 0.70000
Na 12.000000 28.000000 -3.250000 0.70000
Na 16.000000 28.000000 -3.250000 0.70000
Na 20.000000 28.000000 -3.250000 0.70000
Na 24.000000 28.000000 -3.250000 0.70000
Na 28.000000 28.000000 -3.250000 0.70000
Na 32.000000 28.000000 -3.250000 0.70000
Na 36.000000 28.000000 -3.250000 0.70000
Na 40.000000 28.000000 -3.250000 0.70000
Na 44.000000 28.000000 -3.250000 0.70000
Cl 2.000000 30.000000 -3.250000 -0.70000
Cl 6.000000 30.000000 -3.250000 -0.70000
Cl 10.000000 30.000000 -3.250000 -0.70000
Cl 14.000000 30.000000 -3.250000 -0.70000
Cl 18.000000 30.000000 -3.250000 -0.70000
Cl 22.000000 30.000000 -3.250000 -0.70000
Cl 26.000000 30.000000 -3.250000 -0.70000
Cl 30.000000 30.000000 -3.250000 -0.70000
Cl 34.000000 30.000000 -3.250000 -0.70000
Cl 38.000000 30.000000 -3.250000 -0.70000
Cl 42.000000 30.000000 -3.250000 -0.70000
Cl 46.000000 30.000000 -3.250000 -0.70000
Na 0.000000 32.000000 -3.250000 0.70000
Na 4.000000 32.000000 -3.250000 0.70000
Na 8.000000 32.000000 -3.250000 0.70000
Na 12.000000 32.000000 -3.250000 0.70000
Na 16.000000 32.000000 -3.250000 0.70000
Na 20.000000 32.000000 -3.250000 0.70000
Na 24.000000 32.000000 -3.250000 0.70000
Na 28.000000 32.000000 -3.250000 0.70000
Na 32.000000 32.000000 -3.250000 0.70000
Na 36.000000 32.000000 -3.250000 0.70000
Na 40.000000 32.000000 -3.250000 0.70000
Na 44.000000 32.000000 -3.250000 0.70000
Cl 2.000000 34.000000 -3.250000 -0.70000
Cl 6.000000 34.000000 -3.250000 -0.70000
Cl 10.000000 34.000000 -3.250000 -0.70000
Cl 14.000000 34.000000 -3.250000 -0.70000
Cl 18.000000 34.000000 -3.250000 -0.70000
Cl 22.000000 34.000000 -3.250000 -0.70000
Cl 26.000000 34.000000 -3.250000 -0.70000
Cl 30.000000 34.000000 -3.250000 -0.70000
Cl 34.000000 34.000000 -3.250000 -0.70000
Cl 38.000000 34.000000 -3.250000 -0.70000
Cl 42.000000 34.000000 -3.250000 -0.70000
Cl 46.000000 34.000000 -3.250000 -0.70000
Na 0.000000 36.000000 -3.250000 0.70000
Na 4.000000 36.000000 -3.250000 0.70000
Na 8.000000 36.000000 -3.250000 0.70000
Na 12.000000 36.000000 -3.250000 0.70000
Na 16.000000 36.000000 -3.250000 0.70000
Na 20.000000 36.000000 -3.250000 0.70000
Na 24.000000 36.000000 -3.250000 0.70000
Na 28.000000 36.000000 -3.250000 0.70000
Na 32.000000 36.000000 -3.250000 0.70000
Na 36.000000 36.000000 -3.250000 0.70000
Na 40.000000 36.000000 -3.250000 0.70000
Na 44.000000 36.000000 -3.250000 0.70000
Cl 2.000000 38.000000 -3.250000 -0.70000
Cl 6.000000 38.000000 -3.250000 -0.70000
Cl 10.000000 38.000000 -3.250000 -0.70000
Cl 14.000000 38.000000 -3.250000 -0.70000
Cl 18.000000 38.000000 -3.250000 -0.70000
Cl 22.000000 38.000000 -3.250000 -0.70000
Cl 26.000000 38.000000 -3.250000 -0.70000
Cl 30.000000 38.000000 -3.250000 -0.70000
Cl 34.000000 38.000000 -3.250000 -0.70000
Cl 38.000000 38.000000 -3.250000 -0.70000
Cl 42.000000 38.000000 -3.250000 -0.70000
Cl 46.000000 38.000000 -3.250000 -0.70000
Na 0.000000 40.000000 -3.250000 0.70000
Na 4.000000 40.000000 -3.250000 0.70000
Na 8.000000 40.000000 -3.250000 0.70000
Na 12.000000 40.000000 -3.250000 0.70000
Na 16.000000 40.000000 -3.250000 0.70000
Na 20.000000 40.000000 -3.250000 0.70000
Na 24.000000 40.000000 -3.250000 0.70000
Na 28.000000 40.000000 -3.250000 0.70000
Na 32.000000 40.000000 -3.250000 0.70000
Na 36.000000 40.000000 -3.250000 0.70000
Na 40.000000 40.000000 -3.250000 0.70000
Na 44.000000 40.000000 -3.250000 0.70000
Cl 2.000000 42.000000 -3.250000 -0.70000
Cl 6.000000 42.000000 -3.250000 -0.70000
Cl 10.000000 42.000000 -3.250000 -0.70000
Cl 14.000000 42.000000 -3.250000 -0.70000
Cl 18.000000 42.000000 -3.250000 -0.70000
Cl 22.000000 42.000000 -3.250000 -0.70000
Cl 26.000000 42.000000 -3.250000 -0.70000
Cl 30.000000 42.000000 -3.250000 -0.70000
Cl 34.000000 42.000000 -3.250000 -0.70000
Cl 38.000000 42.000000 -3.250000 -0.70000
Cl 42.000000 42.000000 -3.250000 -0.70000
Cl 46.000000 42.000000 -3.250000 -0.70000
Na 0.000000 44.000000 -3.250000 0.70000
Na 4.000000 44.000000 -3.250000 0.70000
Na 8.000000 44.000000 -3.250000 0.70000
Na 12.000000 44.000000 -3.250000 0.70000
Na 16.000000 44.000000 -3.250000 0.70000
Na 20.000000 44.000000 -3.250000 0.70000
Na 24.000000 44.000000 -3.250000 0.70000
Na 28.000000 44.000000 -3.250000 0.70000
Na 32.000000 44.000000 -3.250000 0.70000
Na 36.000000 44.000000 -3.250000 0.70000
Na 40.000000 44.000000 -3.250000 0.70000
Na 44.000000 44.000000 -3.250000 0.70000
Cl 2.000000 46.000000 -3.250000 -0.70000
Cl 6.000000 46.000000 -3.250000 -0.70000
Cl 10.000000 46.000000 -3.250000 -0.70000
Cl 14.000000 46.000000 -3.250000 -0.70000
Cl 18.000000 46.000000 -3.250000 -0.70000
Cl 22.000000 46.000000 -3.250000 -0.70000
Cl 26.000000 46.000000 -3.250000 -0.70000
Cl 30.000000 46.000000 -3.250000 -0.70000
Cl 34.000000 46.000000 -3.250000 -0.70000
Cl 38.000000 46.000000 -3.250000 -0.70000
Cl 42.000000 46.000000 -3.250000 -0.70000
Cl 46.000000 46.000000 -3.250000 -0.70000
Cl 0.000000 0.000000 -6.078427 -0.70000
Cl 4.000000 0.000000 -6.078427 -0.70000
Cl 8.000000 0.000000 -6.078427 -0.70000
Cl 12.000000 0.000000 -6.078427 -0.70000
Cl 16.000000 0.000000 -6.078427 -0.70000
Cl 20.000000 0.000000 -6.078427 -0.70000
Cl 24.000000 0.000000 -6.078427 -0.70000
Cl 28.000000 0.000000 -6.078427 -0.70000
Cl 32.000000 0.000000 -6.078427 -0.70000
Cl 36.000000 0.000000 -6.078427 -0.70000
Cl 40.000000 0.000000 -6.078427 -0.70000
Cl 44.000000 0.000000 -6.078427 -0.70000
Na 2.000000 2.000000 -6.078427 0.70000
Na 6.000000 2.000000 -6.078427 0.70000
Na 10.000000 2.000000 -6.078427 0.70000
Na 14.000000 2.000000 -6.078427 0.70000
Na 18.000000 2.000000 -6.078427 0.70000
Na 22.000000 2.000000 -6.078427 0.70000
Na 26.000000 2.000000 -6.078427 0.70000
Na 30.000000 2.000000 -6.078427 0.70000
Na 34.000000 2.000000 -6.078427 0.70000
Na 38.000000 2.000000 -6.078427 0.70000
Na 42.000000 2.000000 -6.078427 0.70000
Na 46.000000 2.000000 -6.078427 0.70000
Cl 0.000000 4.000000 -6.078427 -0.70000
Cl 4.000000 4.000000 -6.078427 -0.70000
Cl 8.000000 4.000000 -6.078427 -0.70000
Cl 12.000000 4.000000 -6.078427 -0.70000
Cl 16.000000 4.000000 -6.078427 -0.70000
Cl 20.000000 4.000000 -6.078427 -0.70000
Cl 24.000000 4.000000 -6.078427 -0.70000
Cl 28.000000 4.000000 -6.078427 -0.70000
Cl 32.000000 4.000000 -6.078427 -0.70000
Cl 36.000000 4.000000 -6.078427 -0.70000
Cl 40.000000 4.000000 -6.078427 -0.70000
Cl 44.000000 4.000000 -6.078427 -0.70000
Na 2.000000 6.000000 -6.078427 0.70000
Na 6.000000 6.000000 -6.078427 0.70000
Na 10.000000 6.000000 -6.078427 0.70000
Na 14.000000 6.000000 -6.078427 0.70000
Na 18.000000 6.000000 -6.078427 0.70000
Na 22.000000 6.000000 -6.078427 0.70000
Na 26.000000 6.000000 -6.078427 0.70000
Na 30.000000 6.000000 -6.078427 0.70000
Na 34.000000 6.000000 -6.078427 0.70000
Na 38.000000 6.000000 -6.078427 0.70000
Na 42.000000 6.000000 -6.078427 0.70000
Na 46.000000 6.000000 -6.078427 0.70000
Cl 0.000000 8.000000 -6.078427 -0.70000
Cl 4.000000 8.000000 -6.078427 -0.70000
Cl 8.000000 8.000000 -6.078427 -0.70000
Cl 12.000000 8.000000 -6.078427 -0.70000
Cl 16.000000 8.000000 -6.078427 -0.70000
Cl 20.000000 8.000000 -6.078427 -0.70000
Cl 24.000000 8.000000 -6.078427 -0.70000
Cl 28.000000 8.000000 -6.078427 -0.70000
Cl 32.000000 8.000000 -6.078427 -0.70000
Cl 36.000000 8.000000 -6.078427 -0.70000
Cl 40.000000 8.000000 -6.078427 -0.70000
Cl 44.000000 8.000000 -6.078427 -0.70000
Na 2.000000 10.000000 -6.078427 0.70000
Na 6.000000 10.000000 -6.078427 0.70000
Na 10.000000 10.000000 -6.078427 0.70000
Na 14.000000 10.000000 -6.078427 0.70000
Na 18.000000 10.000000 -6.078427 0.70000
Na 22.000000 10.000000 -6.078427 0.70000
Na 26.000000 10.000000 -6.078427 0.70000
Na 30.000000 10.000000 -6.078427 0.70000
Na 34.000000 10.000000 -6.078427 0.70000
Na 38.000000 10.000000 -6.078427 0.70000
Na 42.000000 10.000000 -6.078427 0.70000
Na 46.000000 10.000000 -6.078427 0.70000
Cl 0.000000 12.000000 -6.078427 -0.70000
Cl 4.000000 12.000000 -6.078427 -0.70000
Cl 8.000000 12.000000 -6.078427 -0.70000
Cl 12.000000 12.000000 -6.078427 -0.70000
Cl 16.000000 12.000000 -6.078427 -0.70000
Cl 20.000000 12.000000 -6.078427 -0.70000
Cl 24.000000 12.000000 -6.078427 -0.70000
Cl 28.000000 12.000000 -6.078427 -0.70000
Cl 32.000000 12.000000 -6.078427 -0.70000
Cl 36.000000 12.000000 -6.078427 -0.70000
Cl 40.000000 12.000000 -6.078427 -0.70000
Cl 44.000000 12.000000 -6.078427 -0.70000
Na 2.000000 14.000000 -6.078427 0.70000
Na 6.000000 14.000000 -6.078427 0.70000
Na 10.000000 14.000000 -6.078427 0.70000
Na 14.000000 14.000000 -6.078427 0.70000
Na 18.000000 14.000000 -6.078427 0.70000
Na 22.000000 14.000000 -6.078427 0.70000
Na 26.000000 14.000000 -6.078427 0.70000
Na 30.000000 14.000000 -6.078427 0.70000
Na 34.000000 14.000000 -6.078427 0.70000
Na 38.000000 14.000000 -6.078427 0.70000
Na 42.000000 14.000000 -6.078427 0.70000
Na 46.000000 14.000000 -6.078427 0.70000
Cl 0.000000 16.000000 -6.078427 -0.70000
Cl 4.000000 16.000000 -6.078427 -0.70000
Cl 8.000000 16.000000 -6.078427 -0.70000
Cl 12.000000 16.000000 -6.078427 -0.70000
Cl 16.000000 16.000000 -6.078427 -0.70000
Cl 20.000000 16.000000 -6.078427 -0.70000
Cl 24.000000 16.000000 -6.078427 -0.70000
Cl 28.000000 16.000000 -6.078427 -0.70000
Cl 32.000000 16.000000 -6.078427 -0.70000
Cl 36.000000 16.000000 -6.078427 -0.70000
Cl 40.000000 16.000000 -6.078427 -0.70000
Cl 44.000000 16.000000 -6.078427 -0.70000
Na 2.000000 18.000000 -6.078427 0.70000
Na 6.000000 18.000000 -6.078427 0.70000
Na 10.000000 18.000000 -6.078427 0.70000
Na 14.000000 18.000000 -6.078427 0.70000
Na 18.000000 18.000000 -6.078427 0.70000
Na 22.000000 18.000000 -6.078427 0.70000
Na 26.000000 18.000000 -6.078427 0.70000
Na 30.000000 18.000000 -6.078427 0.70000
Na 34.000000 18.000000 -6.078427 0.70000
Na 38.000000 18.000000 -6.078427 0.70000
Na 42.000000 18.000000 -6.078427 0.70000
Na 46.000000 18.000000 -6.078427 0.70000
Cl 0.000000 20.000000 -6.078427 -0.70000
Cl 4.000000 20.000000 -6.078427 -0.70000
Cl 8.000000 20.000000 -6.078427 -0.70000
Cl 12.000000 20.000000 -6.078427 -0.70000
Cl 16.000000 20.000000 -6.078427 -0.70000
Cl 20.000000 20.000000 -6.078427 -0.70000
Cl 24.000000 20.000000 -6.078427 -0.70000
Cl 28.000000 20.000000 -6.078427 -0.70000
Cl 32.000000 20.000000 -6.078427 -0.70000
Cl 36.000000 20.000000 -6.078427 -0.70000
Cl 40.000000 20.000000 -6.078427 -0.70000
Cl 44.000000 20.000000 -6.078427 -0.70000
Na 2.000000 22.000000 -6.078427 0.70000
Na 6.000000 22.000000 -6.078427 0.70000
Na 10.000000 22.000000 -6.078427 0.70000
Na 14.000000 22.000000 -6.078427 0.70000
Na 18.000000 22.000000 -6.078427 0.70000
Na 22.000000 22.000000 -6.078427 0.70000
Na 26.000000 22.000000 -6.078427 0.70000
Na 30.000000 22.000000 -6.078427 0.70000
Na 34.000000 22.000000 -6.078427 0.70000
Na 38.000000 22.000000 -6.078427 0.70000
Na 42.000000 22.000000 -6.078427 0.70000
Na 46.000000 22.000000 -6.078427 0.70000
Cl 0.000000 24.000000 -6.078427 -0.70000
Cl 4.000000 24.000000 -6.078427 -0.70000
Cl 8.000000 24.000000 -6.078427 -0.70000
Cl 12.000000 24.000000 -6.078427 -0.70000
Cl 16.000000 24.000000 -6.078427 -0.70000
Cl 20.000000 24.000000 -6.078427 -0.70000
Cl 24.000000 24.000000 -6.078427 -0.70000
Cl 28.000000 24.000000 -6.078427 -0.70000
Cl 32.000000 24.000000 -6.078427 -0.70000
Cl 36.000000 24.000000 -6.078427 -0.70000
Cl 40.000000 24.000000 -6.078427 -0.70000
Cl 44.000000 24.000000 -6.078427 -0.70000
Na 2.000000 26.000000 -6.078427 0.70000
Na 6.000000 26.000000 -6.078427 0.70000
Na 10.000000 26.000000 -6.078427 0.70000
Na 14.000000 26.000000 -6.078427 0.70000
Na 18.000000 26.000000 -6.078427 0.70000
Na 22.000000 26.000000 -6.078427 0.70000
Na 26.000000 26.000000 -6.078427 0.70000
Na 30.000000 26.000000 -6.078427 0.70000
Na 34.000000 26.000000 -6.078427 0.70000
Na 38.000000 26.000000 -6.078427 0.70000
Na 42.000000 26.000000 -6.078427 0.70000
Na 46.000000 26.000000 -6.078427 0.70000
Cl 0.000000 28.000000 -6.078427 -0.70000
Cl 4.000000 28.000000 -6.078427 -0.70000
Cl 8.000000 28.000000 -6.078427 -0.70000
Cl 12.000000 28.000000 -6.078427 -0.70000
Cl 16.000000 28.000000 -6.078427 -0.70000
Cl 20.000000 28.000000 -6.078427 -0.70000
Cl 24.000000 28.000000 -6.078427 -0.70000
Cl 28.000000 28.000000 -6.078427 -0.70000
Cl 32.000000 28.000000 -6.078427 -0.70000
Cl 36.000000 28.000000 -6.078427 -0.70000
Cl 40.000000 28.000000 -6.078427 -0.70000
Cl 44.000000 28.000000 -6.078427 -0.70000
Na 2.000000 30.000000 -6.078427 0.70000
Na 6.000000 30.000000 -6.078427 0.70000
Na 10.000000 30.000000 -6.078427 0.70000
Na 14.000000 30.000000 -6.078427 0.70000
Na 18.000000 30.000000 -6.078427 0.70000
Na 22.000000 30.000000 -6.078427 0.70000
Na 26.000000 30.000000 -6.078427 0.70000
Na 30.000000 30.000000 -6.078427 0.70000
Na 34.000000 30.000000 -6.078427 0.70000
Na 38.000000 30.000000 -6.078427 0.70000
Na 42.000000 30.000000 -6.078427 0.70000
Na 46.000000 30.000000 -6.078427 0.70000
Cl 0.000000 32.000000 -6.078427 -0.70000
Cl 4.000000 32.000000 -6.078427 -0.70000
Cl 8.000000 32.000000 -6.078427 -0.70000
Cl 12.000000 32.000000 -6.078427 -0.70000
Cl 16.000000 32.000000 -6.078427 -0.70000
Cl 20.000000 32.000000 -6.078427 -0.70000
Cl 24.000000 32.000000 -6.078427 -0.70000
Cl 28.000000 32.000000 -6.078427 -0.70000
Cl 32.000000 32.000000 -6.078427 -0.70000
Cl 36.000000 32.000000 -6.078427 -0.70000
Cl 40.000000 32.000000 -6.078427 -0.70000
Cl 44.000000 32.000000 -6.078427 -0.70000
Na 2.000000 34.000000 -6.078427 0.70000
Na 6.000000 34.000000 -6.078427 0.70000
Na 10.000000 34.000000 -6.078427 0.70000
Na 14.000000 34.000000 -6.078427 0.70000
Na 18.000000 34.000000 -6.078427 0.70000
Na 22.000000 34.000000 -6.078427 0.70000
Na 26.000000 34.000000 -6.078427 0.70000
Na 30.000000 34.000000 -6.078427 0.70000
Na 34.000000 34.000000 -6.078427 0.70000
Na 38.000000 34.000000 -6.078427 0.70000
Na 42.000000 34.000000 -6.078427 0.70000
Na 46.000000 34.000000 -6.078427 0.70000
Cl 0.000000 36.000000 -6.078427 -0.70000
Cl 4.000000 36.000000 -6.078427 -0.70000
Cl 8.000000 36.000000 -6.078427 -0.70000
Cl 12.000000 36.000000 -6.078427 -0.70000
Cl 16.000000 36.000000 -6.078427 -0.70000
Cl 20.000000 36.000000 -6.078427 -0.70000
Cl 24.000000 36.000000 -6.078427 -0.70000
Cl 28.000000 36.000000 -6.078427 -0.70000
Cl 32.000000 36.000000 -6.078427 -0.70000
Cl 36.000000 36.000000 -6.078427 -0.70000
Cl 40.000000 36.000000 -6.078427 -0.70000
Cl 44.000000 36.000000 -6.078427 -0.70000
Na 2.000000 38.000000 -6.078427 0.70000
Na 6.000000 38.000000 -6.078427 0.70000
Na 10.000000 38.000000 -6.078427 0.70000
Na 14.000000 38.000000 -6.078427 0.70000
Na 18.000000 38.000000 -6.078427 0.70000
Na 22.000000 38.000000 -6.078427 0.70000
Na 26.000000 38.000000 -6.078427 0.70000
Na 30.000000 38.000000 -6.078427 0.70000
Na 34.000000 38.000000 -6.078427 0.70000
Na 38.000000 38.000000 -6.078427 0.70000
Na 42.000000 38.000000 -6.078427 0.70000
Na 46.000000 38.000000 -6.078427 0.70000
Cl 0.000000 40.000000 -6.078427 -0.70000
Cl 4.000000 40.000000 -6.078427 -0.70000
Cl 8.000000 40.000000 -6.078427 -0.70000
Cl 12.000000 40.000000 -6.078427 -0.70000
Cl 16.000000 40.000000 -6.078427 -0.70000
Cl 20.000000 40.000000 -6.078427 -0.70000
Cl 24.000000 40.000000 -6.078427 -0.70000
Cl 28.000000 40.000000 -6.078427 -0.70000
Cl 32.000000 40.000000 -6.078427 -0.70000
Cl 36.000000 40.000000 -6.078427 -0.70000
Cl 40.000000 40.000000 -6.078427 -0.70000
Cl 44.000000 40.000000 -6.078427 -0.70000
Na 2.000000 42.000000 -6.078427 0.70000
Na 6.000000 42.000000 -6.078427 0.70000
Na 10.000000 42.000000 -6.078427 0.70000
Na 14.000000 42.000000 -6.078427 0.70000
Na 18.000000 42.000000 -6.078427 0.70000
Na 22.000000 42.000000 -6.078427 0.70000
Na 26.000000 42.000000 -6.078427 0.70000
Na 30.000000 42.000000 -6.078427 0.70000
Na 34.000000 42.000000 -6.078427 0.70000
Na 38.000000 42.000000 -6.078427 0.70000
Na 42.000000 42.000000 -6.078427 0.70000
Na 46.000000 42.000000 -6.078427 0.70000
Cl 0.000000 44.000000 -6.078427 -0.70000
Cl 4.000000 44.000000 -6.078427 -0.70000
Cl 8.000000 44.000000 -6.078427 -0.70000
Cl 12.000000 44.000000 -6.078427 -0.70000
Cl 16.000000 44.000000 -6.078427 -0.70000
Cl 20.000000 44.000000 -6.078427 -0.70000
Cl 24.000000 44.000000 -6.078427 -0.70000
Cl 28.000000 44.000000 -6.078427 -0.70000
Cl 32.000000 44.000000 -6.078427 -0.70000
Cl 36.000000 44.000000 -6.078427 -0.70000
Cl 40.000000 44.000000 -6.078427 -0.70000
Cl 44.000000 44.000000 -6.078427 -0.70000
Na 2.000000 46.000000 -6.078427 0.70000
Na 6.000000 46.000000 -6.078427 0.70000
Na 10.000000 46.000000 -6.078427 0.70000
Na 14.000000 46.000000 -6.078427 0.70000
Na 18.000000 46.000000 -6.078427 0.70000
Na 22.000000 46.000000 -6.078427 0.70000
Na 26.000000 46.000000 -6.078427 0.70000
Na 30.000000 46.000000 -6.078427 0.70000
Na 34.000000 46.000000 -6.078427 0.70000
Na 38.000000 46.000000 -6.078427 0.70000
Na 42.000000 46.000000 -6.078427 0.70000
Na 46.000000 46.000000 -6.078427 0.70000
Na 0.000000 0.000000 -8.906854 0.70000
Na 4.000000 0.000000 -8.906854 0.70000
Na 8.000000 0.000000 -8.906854 0.70000
Na 12.000000 0.000000 -8.906854 0.70000
Na 16.000000 0.000000 -8.906854 0.70000
Na 20.000000 0.000000 -8.906854 0.70000
Na 24.000000 0.000000 -8.906854 0.70000
Na 28.000000 0.000000 -8.906854 0.70000
Na 32.000000 0.000000 -8.906854 0.70000
Na 36.000000 0.000000 -8.906854 0.70000
Na 40.000000 0.000000 -8.906854 0.70000
Na 44.000000 0.000000 -8.906854 0.70000
Cl 2.000000 2.000000 -8.906854 -0.70000
Cl 6.000000 2.000000 -8.906854 -0.70000
Cl 10.000000 2.000000 -8.906854 -0.70000
Cl 14.000000 2.000000 -8.906854 -0.70000
Cl 18.000000 2.000000 -8.906854 -0.70000
Cl 22.000000 2.000000 -8.906854 -0.70000
Cl 26.000000 2.000000 -8.906854 -0.70000
Cl 30.000000 2.000000 -8.906854 -0.70000
Cl 34.000000 2.000000 -8.906854 -0.70000
Cl 38.000000 2.000000 -8.906854 -0.70000
Cl 42.000000 2.000000 -8.906854 -0.70000
Cl 46.000000 2.000000 -8.906854 -0.70000
Na 0.000000 4.000000 -8.906854 0.70000
Na 4.000000 4.000000 -8.906854 0.70000
Na 8.000000 4.000000 -8.906854 0.70000
Na 12.000000 4.000000 -8.906854 0.70000
Na 16.000000 4.000000 -8.906854 0.70000
Na 20.000000 4.000000 -8.906854 0.70000
Na 24.000000 4.000000 -8.906854 0.70000
Na 28.000000 4.000000 -8.906854 0.70000
Na 32.000000 4.000000 -8.906854 0.70000
Na 36.000000 4.000000 -8.906854 0.70000
Na 40.000000 4.000000 -8.906854 0.70000
Na 44.000000 4.000000 -8.906854 0.70000
Cl 2.000000 6.000000 -8.906854 -0.70000
Cl 6.000000 6.000000 -8.906854 -0.70000
Cl 10.000000 6.000000 -8.906854 -0.70000
Cl 14.000000 6.000000 -8.906854 -0.70000
Cl 18.000000 6.000000 -8.906854 -0.70000
Cl 22.000000 6.000000 -8.906854 -0.70000
Cl 26.000000 6.000000 -8.906854 -0.70000
Cl 30.000000 6.000000 -8.906854 -0.70000
Cl 34.000000 6.000000 -8.906854 -0.70000
Cl 38.000000 6.000000 -8.906854 -0.70000
Cl 42.000000 6.000000 -8.906854 -0.70000
Cl 46.000000 6.000000 -8.906854 -0.70000
Na 0.000000 8.000000 -8.906854 0.70000
Na 4.000000 8.000000 -8.906854 0.70000
Na 8.000000 8.000000 -8.906854 0.70000
Na 12.000000 8.000000 -8.906854 0.70000
Na 16.000000 8.000000 -8.906854 0.70000
Na 20.000000 8.000000 -8.906854 0.70000
Na 24.000000 8.000000 -8.906854 0.70000
Na 28.000000 8.000000 -8.906854 0.70000
Na 32.000000 8.000000 -8.906854 0.70000
Na 36.000000 8.000000 -8.906854 0.70000
Na 40.000000 8.000000 -8.906854 0.70000
Na 44.000000 8.000000 -8.906854 0.70000
Cl 2.000000 10.000000 -8.906854 -0.70000
Cl 6.000000 10.000000 -8.906854 -0.70000
Cl 10.000000 10.000000 -8.906854 -0.70000
Cl 14.000000 10.000000 -8.906854 -0.70000
Cl 18.000000 10.000000 -8.906854 -0.70000
Cl 22.000000 10.000000 -8.906854 -0.70000
Cl 26.000000 10.000000 -8.906854 -0.70000
Cl 30.000000 10.000000 -8.906854 -0.70000
Cl 34.000000 10.000000 -8.906854 -0.70000
Cl 38.000000 10.000000 -8.906854 -0.70000
Cl 42.000000 10.000000 -8.906854 -0.70000
Cl 46.000000 10.000000 -8.906854 -0.70000
Na 0.000000 12.000000 -8.906854 0.70000
Na 4.000000 12.000000 -8.906854 0.70000
Na 8.000000 12.000000 -8.906854 0.70000
Na 12.000000 12.000000 -8.906854 0.70000
Na 16.000000 12.000000 -8.906854 0.70000
Na 20.000000 12.000000 -8.906854 0.70000
Na 24.000000 12.000000 -8.906854 0.70000
Na 28.000000 12.000000 -8.906854 0.70000
Na 32.000000 12.000000 -8.906854 0.70000
Na 36.000000 12.000000 -8.906854 0.70000
Na 40.000000 12.000000 -8.906854 0.70000
Na 44.000000 12.000000 -8.906854 0.70000
Cl 2.000000 14.000000 -8.906854 -0.70000
Cl 6.000000 14.000000 -8.906854 -0.70000
Cl 10.000000 14.000000 -8.906854 -0.70000
Cl 14.000000 14.000000 -8.906854 -0.70000
Cl 18.000000 14.000000 -8.906854 -0.70000
Cl 22.000000 14.000000 -8.906854 -0.70000
Cl 26.000000 14.000000 -8.906854 -0.70000
Cl 30.000000 14.000000 -8.906854 -0.70000
Cl 34.000000 14.000000 -8.906854 -0.70000
Cl 38.000000 14.000000 -8.906854 -0.70000
Cl 42.000000 14.000000 -8.906854 -0.70000
Cl 46.000000 14.000000 -8.906854 -0.70000
Na 0.000000 16.000000 -8.906854 0.70000
Na 4.000000 16.000000 -8.906854 0.70000
Na 8.000000 16.000000 -8.906854 0.70000
Na 12.000000 16.000000 -8.906854 0.70000
Na 16.000000 16.000000 -8.906854 0.70000
Na 20.000000 16.000000 -8.906854 0.70000
Na 24.000000 16.000000 -8.906854 0.70000
Na 28.000000 16.000000 -8.906854 0.70000
Na 32.000000 16.000000 -8.906854 0.70000
Na 36.000000 16.000000 -8.906854 0.70000
Na 40.000000 16.000000 -8.906854 0.70000
Na 44.000000 16.000000 -8.906854 0.70000
Cl 2.000000 18.000000 -8.906854 -0.70000
Cl 6.000000 18.000000 -8.906854 -0.70000
Cl 10.000000 18.000000 -8.906854 -0.70000
Cl 14.000000 18.000000 -8.906854 -0.70000
Cl 18.000000 18.000000 -8.906854 -0.70000
Cl 22.000000 18.000000 -8.906854 -0.70000
Cl 26.000000 18.000000 -8.906854 -0.70000
Cl 30.000000 18.000000 -8.906854 -0.70000
Cl 34.000000 18.000000 -8.906854 -0.70000
Cl 38.000000 18.000000 -8.906854 -0.70000
Cl 42.000000 18.000000 -8.906854 -0.70000
Cl 46.000000 18.000000 -8.906854 -0.70000
Na 0.000000 20.000000 -8.906854 0.70000
Na 4.000000 20.000000 -8.906854 0.70000
Na 8.000000 20.000000 -8.906854 0.70000
Na 12.000000 20.000000 -8.906854 0.70000
Na 16.000000 20.000000 -8.906854 0.70000
Na 20.000000 20.000000 -8.906854 0.70000
Na 24.000000 20.000000 -8.906854 0.70000
Na 28.000000 20.000000 -8.906854 0.70000
Na 32.000000 20.000000 -8.906854 0.70000
Na 36.000000 20.000000 -8.906854 0.70000
Na 40.000000 20.000000 -8.906854 0.70000
Na 44.000000 20.000000 -8.906854 0.70000
Cl 2.000000 22.000000 -8.906854 -0.70000
Cl 6.000000 22.000000 -8.906854 -0.70000
Cl 10.000000 22.000000 -8.906854 -0.70000
Cl 14.000000 22.000000 -8.906854 -0.70000
Cl 18.000000 22.000000 -8.906854 -0.70000
Cl 22.000000 22.000000 -8.906854 -0.70000
Cl 26.000000 22.000000 -8.906854 -0.70000
Cl 30.000000 22.000000 -8.906854 -0.70000
Cl 34.000000 22.000000 -8.906854 -0.70000
Cl 38.000000 22.000000 -8.906854 -0.70000
Cl 42.000000 22.000000 -8.906854 -0.70000
Cl 46.000000 22.000000 -8.906854 -0.70000
Na 0.000000 24.000000 -8.906854 0.70000
Na 4.000000 24.000000 -8.906854 0.70000
Na 8.000000 24.000000 -8.906854 0.70000
Na 12.000000 24.000000 -8.906854 0.70000
Na 16.000000 24.000000 -8.906854 0.70000
Na 20.000000 24.000000 -8.906854 0.70000
Na 24.000000 24.000000 -8.906854 0.70000
Na 28.000000 24.000000 -8.906854 0.70000
Na 32.000000 24.000000 -8.906854 0.70000
Na 36.000000 24.000000 -8.906854 0.70000
Na 40.000000 24.000000 -8.906854 0.70000
Na 44.000000 24.000000 -8.906854 0.70000
Cl 2.000000 26.000000 -8.906854 -0.70000
Cl 6.000000 26.000000 -8.906854 -0.70000
Cl 10.000000 26.000000 -8.906854 -0.70000
Cl 14.000000 26.000000 -8.906854 -0.70000
Cl 18.000000 26.000000 -8.906854 -0.70000
Cl 22.000000 26.000000 -8.906854 -0.70000
Cl 26.000000 26.000000 -8.906854 -0.70000
Cl 30.000000 26.000000 -8.906854 -0.70000
Cl 34.000000 26.000000 -8.906854 -0.70000
Cl 38.000000 26.000000 -8.906854 -0.70000
Cl 42.000000 26.000000 -8.906854 -0.70000
Cl 46.000000 26.000000 -8.906854 -0.70000
Na 0.000000 28.000000 -8.906854 0.70000
Na 4.000000 28.000000 -8.906854 0.70000
Na 8.000000 28.000000 -8.906854 0.70000
Na 12.000000 28.000000 -8.906854 0.70000
Na 16.000000 28.000000 -8.906854 0.70000
Na 20.000000 28.000000 -8.906854 0.70000
Na 24.000000 28.000000 -8.906854 0.70000
Na 28.000000 28.000000 -8.906854 0.70000
Na 32.000000 28.000000 -8.906854 0.70000
Na 36.000000 28.000000 -8.906854 0.70000
Na 40.000000 28.000000 -8.906854 0.70000
Na 44.000000 28.000000 -8.906854 0.70000
Cl 2.000000 30.000000 -8.906854 -0.70000
Cl 6.000000 30.000000 -8.906854 -0.70000
Cl 10.000000 30.000000 -8.906854 -0.70000
Cl 14.000000 30.000000 -8.906854 -0.70000
Cl 18.000000 30.000000 -8.906854 -0.70000
Cl 22.000000 30.000000 -8.906854 -0.70000
Cl 26.000000 30.000000 -8.906854 -0.70000
Cl 30.000000 30.000000 -8.906854 -0.70000
Cl 34.000000 30.000000 -8.906854 -0.70000
Cl 38.000000 30.000000 -8.906854 -0.70000
Cl 42.000000 30.000000 -8.906854 -0.70000
Cl 46.000000 30.000000 -8.906854 -0.70000
Na 0.000000 32.000000 -8.906854 0.70000
Na 4.000000 32.000000 -8.906854 0.70000
Na 8.000000 32.000000 -8.906854 0.70000
Na 12.000000 32.000000 -8.906854 0.70000
Na 16.000000 32.000000 -8.906854 0.70000
Na 20.000000 32.000000 -8.906854 0.70000
Na 24.000000 32.000000 -8.906854 0.70000
Na 28.000000 32.000000 -8.906854 0.70000
Na 32.000000 32.000000 -8.906854 0.70000
Na 36.000000 32.000000 -8.906854 0.70000
Na 40.000000 32.000000 -8.906854 0.70000
Na 44.000000 32.000000 -8.906854 0.70000
Cl 2.000000 34.000000 -8.906854 -0.70000
Cl 6.000000 34.000000 -8.906854 -0.70000
Cl 10.000000 34.000000 -8.906854 -0.70000
Cl 14.000000 34.000000 -8.906854 -0.70000
Cl 18.000000 34.000000 -8.906854 -0.70000
Cl 22.000000 34.000000 -8.906854 -0.70000
Cl 26.000000 34.000000 -8.906854 -0.70000
Cl 30.000000 34.000000 -8.906854 -0.70000
Cl 34.000000 34.000000 -8.906854 -0.70000
Cl 38.000000 34.000000 -8.906854 -0.70000
Cl 42.000000 34.000000 -8.906854 -0.70000
Cl 46.000000 34.000000 -8.906854 -0.70000
Na 0.000000 36.000000 -8.906854 0.70000
Na 4.000000 36.000000 -8.906854 0.70000
Na 8.000000 36.000000 -8.906854 0.70000
Na 12.000000 36.000000 -8.906854 0.70000
Na 16.000000 36.000000 -8.906854 0.70000
Na 20.000000 36.000000 -8.906854 0.70000
Na 24.000000 36.000000 -8.906854 0.70000
Na 28.000000 36.000000 -8.906854 0.70000
Na 32.000000 36.000000 -8.906854 0.70000
Na 36.000000 36.000000 -8.906854 0.70000
Na 40.000000 36.000000 -8.906854 0.70000
Na 44.000000 36.000000 -8.906854 0.70000
Cl 2.000000 38.000000 -8.906854 -0.70000
Cl 6.000000 38.000000 -8.906854 -0.70000
Cl 10.000000 38.000000 -8.906854 -0.70000
Cl 14.000000 38.000000 -8.906854 -0.70000
Cl 18.000000 38.000000 -8.906854 -0.70000
Cl 22.000000 38.000000 -8.906854 -0.70000
Cl 26.000000 38.000000 -8.906854 -0.70000
Cl 30.000000 38.000000 -8.906854 -0.70000
Cl 34.000000 38.000000 -8.906854 -0.70000
Cl 38.000000 38.000000 -8.906854 -0.70000
Cl 42.000000 38.000000 -8.906854 -0.70000
Cl 46.000000 38.000000 -8.906854 -0.70000
Na 0.000000 40.000000 -8.906854 0.70000
Na 4.000000 40.000000 -8.906854 0.70000
Na 8.000000 40.000000 -8.906854 0.70000
Na 12.000000 40.000000 -8.906854 0.70000
Na 16.000000 40.000000 -8.906854 0.70000
Na 20.000000 40.000000 -8.906854 0.70000
Na 24.000000 40.000000 -8.906854 0.70000
Na 28.000000 40.000000 -8.906854 0.70000
Na 32.000000 40.000000 -8.906854 0.70000
Na 36.000000 40.000000 -8.906854 0.70000
Na 40.000000 40.000000 -8.906854 0.70000
Na 44.000000 40.000000 -8.906854 0.70000
Cl 2.000000 42.000000 -8.906854 -0.70000
Cl 6.000000 42.000000 -8.906854 -0.70000
Cl 10.000000 42.000000 -8.906854 -0.70000
Cl 14.000000 42.000000 -8.906854 -0.70000
Cl 18.000000 42.000000 -8.906854 -0.70000
Cl 22.000000 42.000000 -8.906854 -0.70000
Cl 26.000000 42.000000 -8.906854 -0.70000
Cl 30.000000 42.000000 -8.906854 -0.70000
Cl 34.000000 42.000000 -8.906854 -0.70000
Cl 38.000000 42.000000 -8.906854 -0.70000
Cl 42.000000 42.000000 -8.906854 -0.70000
Cl 46.000000 42.000000 -8.906854 -0.70000
Na 0.000000 44.000000 -8.906854 0.70000
Na 4.000000 44.000000 -8.906854 0.70000
Na 8.000000 44.000000 -8.906854 0.70000
Na 12.000000 44.000000 -8.906854 0.70000
Na 16.000000 44.000000 -8.906854 0.70000
Na 20.000000 44.000000 -8.906854 0.70000
Na 24.000000 44.000000 -8.906854 0.70000
Na 28.000000 44.000000 -8.906854 0.70000
Na 32.000000 44.000000 -8.906854 0.70000
Na 36.000000 44.000000 -8.906854 0.70000
Na 40.000000 44.000000 -8.906854 0.70000
Na 44.000000 44.000000 -8.906854 0.70000
Cl 2.000000 46.000000 -8.906854 -0.70000
Cl 6.000000 46.000000 -8.906854 -0.70000
Cl 10.000000 46.000000 -8.906854 -0.70000
Cl 14.000000 46.000000 -8.906854 -0.70000
Cl 18.000000 46.000000 -8.906854 -0.70000
Cl 22.000000 46.000000 -8.906854 -0.70000
Cl 26.000000 46.000000 -8.906854 -0.70000
Cl 30.000000 46.000000 -8.906854 -0.70000
Cl 34.000000 46.000000 -8.906854 -0.70000
Cl 38.000000 46.000000 -8.906854 -0.70000
Cl 42.000000 46.000000 -8.906854 -0.70000
Cl 46.000000 46.000000 -8.906854 -0.70000