16
XYZ file generated by Avogadro.
C     -1.48824    0.56412   -0.04211
C     -1.68507   -0.77591   -0.04079
C      0.62542   -1.15796    0.31642
N     -0.62229   -1.66342    0.14006
C      0.79581    0.21075    0.31058
H     -2.65601   -1.23629   -0.17702
H     -0.11634    2.10790    0.12933
C      2.78840   -0.71976    0.63260
N     -0.21358    1.10049    0.13814
C      1.87549   -1.75763    0.51862
H     -2.28582    1.28439   -0.17925
N      2.11421    0.48065    0.50323
H      2.10318   -2.81229    0.57735
H      2.53023    1.39941    0.54515
H      3.85756   -0.72878    0.79439
H     -0.82965   -2.65367    0.13119
