      38
lvs       32.000       0.000       0.000       0.000      32.000       0.000       0.000       0.000      60.000
 C     2.7822441106649407        2.1931398680188403        5.6568540000000000       -5.6899999999999997E-003
 C     8.4629020876273753        2.1930373296077761        5.6568540000000000       -5.6899999999999997E-003
 C     7.0379884732830540        2.1930630979847336        5.6568540000000000        1.2380000000000000E-002
 C     4.2071577250111432        2.1931141956321700        5.6568540000000000        1.2380000000000000E-002
 C     6.3356929404476867       0.95535246858192124        5.6568540000000000        1.6310000000000002E-002
 C     4.9094085748331722       0.95537821354812280        5.6568540000000000        1.6310000000000002E-002
 C     4.9094532367843300        3.4308248496834195        5.6568540000000000        1.6310000000000002E-002
 C     6.3357376445251710        3.4307991047167801        5.6568540000000000        1.6310000000000002E-002
 C     4.1506840231503155      -0.24385365997705932        5.6568540000000000       -3.8425000000000001E-002
 C     7.0943741981732789      -0.24390679471211740        5.6568540000000000       -3.8425000000000001E-002
 C     4.1507719052956915        4.6300840778512260        5.6568540000000000       -3.8425000000000001E-002
 C     7.0944622699714124        4.6300309431129802        5.6568540000000000       -3.8425000000000001E-002
 C     2.7598335348294434      -0.22769910889207523        5.6568540000000000       -3.2570000000000002E-002
 C     2.7599207905411163        4.6139796445109447        5.6568540000000000       -3.2570000000000002E-002
 C     8.4852252686871861      -0.22780245462627136        5.6568540000000000       -3.2570000000000002E-002
 C     8.4853128025294193        4.6138762987687283        5.6568540000000000       -3.2570000000000002E-002
 C     2.0640061962022145        3.4038373681248211        5.6568540000000000        1.9990000000000001E-002
 C     2.0639625771961292       0.98246823269050765        5.6568540000000000        1.9990000000000001E-002
 C     9.1811399142052963       0.98233976432441139        5.6568540000000000        1.9990000000000001E-002
 C     9.1811837089788515        3.4037088997541312        5.6568540000000000        1.9990000000000001E-002
 C     10.589827070940085        1.0275784172064704        5.6568540000000000       0.22694000000000000     
 C     10.589869250254626        3.3584192381178393        5.6568540000000000       0.22694000000000000     
 C    0.65527705461767383        1.0277577410080205        5.6568540000000000       0.22694000000000000     
 C    0.65531902076310189        3.3585985619235199        5.6568540000000000       0.22694000000000000     
 O     11.223300570688860        2.1929873599324381        5.6568540000000000      -0.12278000000000000     
 O     2.1845627597816275E-002   2.1931895521237479        5.6568540000000000      -0.12278000000000000     
 O     11.245146419134041        4.3861769021440047        5.6568540000000000      -0.27689000000000002     
 O     11.245067022172741       -2.0297985318507017E-004   5.6568540000000000      -0.27689000000000002     
 O     7.8955266324953755E-005   4.3863798820053423        5.6568540000000000      -0.27689000000000002     
 O     0.0000000000000000        0.0000000000000000        5.6568540000000000      -0.27689000000000002     
 H     2.2272594084118360       -1.1728703433872241        5.6568540000000000        8.6370000000000002E-002
 H     2.2273807077902745        5.5591700617742950        5.6568540000000000        8.6370000000000002E-002
 H     9.0177652728378064       -1.1729929147251426        5.6568540000000000        8.6370000000000002E-002
 H     9.0178870075523125        5.5590474904215519        5.6568540000000000        8.6370000000000002E-002
 H     4.5940974634372473       -1.2240640885736411        5.6568540000000000        5.6320000000000002E-002
 H     4.5942207401719521        5.6102785055704025        5.6568540000000000        5.6320000000000002E-002
 H     6.6509253713757088       -1.2241012148740857        5.6568540000000000        5.6320000000000002E-002
 H     6.6510488216064623        5.6102413792677677        5.6568540000000000        5.6320000000000002E-002
