      38
lvs       31.792       0.000       0.000       0.000      31.792       0.000       0.000       0.000      60.000
 C   -8.4629321807025946       -2.1930314984839772        5.6199998859999996       -5.6899999999999997E-003
 C   -2.7822626713871603       -2.1931336289731802        5.6199998859999996       -5.6899999999999997E-003
 C   -4.2071791000433301       -2.1931081667863181        5.6199998859999996        1.2380000000000000E-002
 C   -7.0380158199265717       -2.1930572721368744        5.6199998859999996        1.2380000000000000E-002
 C   -4.9094761639437383       -3.4308186105278082        5.6199998859999996        1.6310000000000002E-002
 C   -6.3357632935046366       -3.4307929575342766        5.6199998859999996        1.6310000000000002E-002
 C   -6.3357186973804200      -0.95534688769182008        5.6199998859999996        1.6310000000000002E-002
 C   -4.9094317503068696      -0.95537252023642871        5.6199998859999996        1.6310000000000002E-002
 C   -7.0944890257534654       -4.6300246467483737        5.6199998859999996       -3.8425000000000001E-002
 C   -4.1507935574723538       -4.6300776420384411        5.6199998859999996       -3.8425000000000001E-002
 C   -7.0944009634604539       0.24391231039659278        5.6199998859999996       -3.8425000000000001E-002
 C   -4.1507063671880209       0.24385945815397125        5.6199998859999996       -3.8425000000000001E-002
 C   -8.4853411769161049       -4.6138716918712719        5.6199998859999996       -3.2570000000000002E-002
 C   -8.4852534504381723       0.22780964732944131        5.6199998859999996       -3.2570000000000002E-002
 C   -2.7599406265834698       -4.6139747127030777        5.6199998859999996       -3.2570000000000002E-002
 C   -2.7598542612673391       0.22770679848386788        5.6199998859999996       -3.2570000000000002E-002
 C   -9.1811710945720701      -0.98233173241129457        5.6199998859999996        1.9990000000000001E-002
 C   -9.1812151462559033       -3.4037051991967231        5.6199998859999996        1.9990000000000001E-002
 C   -2.0640231644172733       -3.4038331060314464        5.6199998859999996        1.9990000000000001E-002
 C   -2.0639801511654223      -0.98245973935486219        5.6199998859999996        1.9990000000000001E-002
 C  -0.65533287002767082       -3.3585916723926372        5.6199998859999996       0.22694000000000000     
 C  -0.65529169514663188       -1.0277509470205493        5.6199998859999996       0.22694000000000000     
 C   -10.589903757181272       -3.3584130477749423        5.6199998859999996       0.22694000000000000     
 C   -10.589861122734373       -1.0275723542130235        5.6199998859999996       0.22694000000000000     
 O   -2.1862076145277243E-002  -2.1931823290522803        5.6199998859999996      -0.12278000000000000     
 O   -11.223332574122979       -2.1929809434297209        5.6199998859999996      -0.12278000000000000     
 O    0.0000000000000000        0.0000000000000000        5.6199998859999996      -0.27689000000000002     
 O   -7.7059665967382784E-005  -4.3863651269890118        5.6199998859999996      -0.27689000000000002     
 O   -11.245116658556086        2.0182971004700789E-004   5.6199998859999996      -0.27689000000000002     
 O   -11.245197317920310       -4.3861626154239399        5.6199998859999996      -0.27689000000000002     
 H   -9.0179092443275977       -5.5590461877014716        5.6199998859999996        8.6370000000000002E-002
 H   -9.0177871493725590        1.1730034861682341        5.6199998859999996        8.6370000000000002E-002
 H   -2.2274056831757800       -5.5591681977272263        5.6199998859999996        8.6370000000000002E-002
 H   -2.2272857176737180        1.1728813293477209        5.6199998859999996        8.6370000000000002E-002
 H   -6.6510751436975522       -5.6102357427895138        5.6199998859999996        5.6320000000000002E-002
 H   -6.6509518823651224        1.2241074430602410        5.6199998859999996        5.6320000000000002E-002
 H   -4.5942435951053167       -5.6102725048100917        5.6199998859999996        5.6320000000000002E-002
 H   -4.5941211103563662        1.2240702475342369        5.6199998859999996        5.6320000000000002E-002
