     384
lvs       31.792       0.000       0.000       0.000      31.792       0.000       0.000       0.000      60.000
Na        0.000000       0.000000       5.619999       0.900
Cl        0.000000       0.000000       2.809999      -0.900
Na        0.000000       0.000000       0.000000       0.900
Cl        1.986970       1.986970       5.619999      -0.900
Na        1.986970       1.986970       2.809999       0.900
Cl        1.986970       1.986970       0.000000      -0.900
Na        3.973940       0.000000       5.619999       0.900
Cl        3.973940       0.000000       2.809999      -0.900
Na        3.973940       0.000000       0.000000       0.900
Cl        5.960910       1.986970       5.619999      -0.900
Na        5.960910       1.986970       2.809999       0.900
Cl        5.960910       1.986970       0.000000      -0.900
Na        7.947880       0.000000       5.619999       0.900
Cl        7.947880       0.000000       2.809999      -0.900
Na        7.947880       0.000000       0.000000       0.900
Cl       9.9348500       1.986970       5.619999      -0.900
Na       9.9348500       1.986970       2.809999       0.900
Cl       9.9348500       1.986970       0.000000      -0.900
Na       11.921820       0.000000       5.619999       0.900
Cl       11.921820       0.000000       2.809999      -0.900
Na       11.921820       0.000000       0.000000       0.900
Cl       13.908790       1.986970       5.619999      -0.900
Na       13.908790       1.986970       2.809999       0.900
Cl       13.908790       1.986970       0.000000      -0.900
Na       15.895760       0.000000       5.619999       0.900
Cl       15.895760       0.000000       2.809999      -0.900
Na       15.895760       0.000000       0.000000       0.900
Cl       17.882730       1.986970       5.619999      -0.900
Na       17.882730       1.986970       2.809999       0.900
Cl       17.882730       1.986970       0.000000      -0.900
Na       19.869700       0.000000       5.619999       0.900
Cl       19.869700       0.000000       2.809999      -0.900
Na       19.869700       0.000000       0.000000       0.900
Cl       21.856670       1.986970       5.619999      -0.900
Na       21.856670       1.986970       2.809999       0.900
Cl       21.856670       1.986970       0.000000      -0.900
Na       23.843640       0.000000       5.619999       0.900
Cl       23.843640       0.000000       2.809999      -0.900
Na       23.843640       0.000000       0.000000       0.900
Cl       25.830610       1.986970       5.619999      -0.900
Na       25.830610       1.986970       2.809999       0.900
Cl       25.830610       1.986970       0.000000      -0.900
Na       27.817580       0.000000       5.619999       0.900
Cl       27.817580       0.000000       2.809999      -0.900
Na       27.817580       0.000000       0.000000       0.900
Cl       29.804550       1.986970       5.619999      -0.900
Na       29.804550       1.986970       2.809999       0.900
Cl       29.804550       1.986970       0.000000      -0.900
Na        0.000000       3.973940       5.619999       0.900
Cl        0.000000       3.973940       2.809999      -0.900
Na        0.000000       3.973940       0.000000       0.900
Cl        1.986970       5.960910       5.619999      -0.900
Na        1.986970       5.960910       2.809999       0.900
Cl        1.986970       5.960910       0.000000      -0.900
Na        3.973940       3.973940       5.619999       0.900
Cl        3.973940       3.973940       2.809999      -0.900
Na        3.973940       3.973940       0.000000       0.900
Cl        5.960910       5.960910       5.619999      -0.900
Na        5.960910       5.960910       2.809999       0.900
Cl        5.960910       5.960910       0.000000      -0.900
Na        7.947880       3.973940       5.619999       0.900
Cl        7.947880       3.973940       2.809999      -0.900
Na        7.947880       3.973940       0.000000       0.900
Cl       9.9348500       5.960910       5.619999      -0.900
Na       9.9348500       5.960910       2.809999       0.900
Cl       9.9348500       5.960910       0.000000      -0.900
Na       11.921820       3.973940       5.619999       0.900
Cl       11.921820       3.973940       2.809999      -0.900
Na       11.921820       3.973940       0.000000       0.900
Cl       13.908790       5.960910       5.619999      -0.900
Na       13.908790       5.960910       2.809999       0.900
Cl       13.908790       5.960910       0.000000      -0.900
Na       15.895760       3.973940       5.619999       0.900
Cl       15.895760       3.973940       2.809999      -0.900
Na       15.895760       3.973940       0.000000       0.900
Cl       17.882730       5.960910       5.619999      -0.900
Na       17.882730       5.960910       2.809999       0.900
Cl       17.882730       5.960910       0.000000      -0.900
Na       19.869700       3.973940       5.619999       0.900
Cl       19.869700       3.973940       2.809999      -0.900
Na       19.869700       3.973940       0.000000       0.900
Cl       21.856670       5.960910       5.619999      -0.900
Na       21.856670       5.960910       2.809999       0.900
Cl       21.856670       5.960910       0.000000      -0.900
Na       23.843640       3.973940       5.619999       0.900
Cl       23.843640       3.973940       2.809999      -0.900
Na       23.843640       3.973940       0.000000       0.900
Cl       25.830610       5.960910       5.619999      -0.900
Na       25.830610       5.960910       2.809999       0.900
Cl       25.830610       5.960910       0.000000      -0.900
Na       27.817580       3.973940       5.619999       0.900
Cl       27.817580       3.973940       2.809999      -0.900
Na       27.817580       3.973940       0.000000       0.900
Cl       29.804550       5.960910       5.619999      -0.900
Na       29.804550       5.960910       2.809999       0.900
Cl       29.804550       5.960910       0.000000      -0.900
Na        0.000000       7.947880       5.619999       0.900
Cl        0.000000       7.947880       2.809999      -0.900
Na        0.000000       7.947880       0.000000       0.900
Cl        1.986970      9.9348500       5.619999      -0.900
Na        1.986970      9.9348500       2.809999       0.900
Cl        1.986970      9.9348500       0.000000      -0.900
Na        3.973940       7.947880       5.619999       0.900
Cl        3.973940       7.947880       2.809999      -0.900
Na        3.973940       7.947880       0.000000       0.900
Cl        5.960910      9.9348500       5.619999      -0.900
Na        5.960910      9.9348500       2.809999       0.900
Cl        5.960910      9.9348500       0.000000      -0.900
Na        7.947880       7.947880       5.619999       0.900
Cl        7.947880       7.947880       2.809999      -0.900
Na        7.947880       7.947880       0.000000       0.900
Cl       9.9348500      9.9348500       5.619999      -0.900
Na       9.9348500      9.9348500       2.809999       0.900
Cl       9.9348500      9.9348500       0.000000      -0.900
Na       11.921820       7.947880       5.619999       0.900
Cl       11.921820       7.947880       2.809999      -0.900
Na       11.921820       7.947880       0.000000       0.900
Cl       13.908790      9.9348500       5.619999      -0.900
Na       13.908790      9.9348500       2.809999       0.900
Cl       13.908790      9.9348500       0.000000      -0.900
Na       15.895760       7.947880       5.619999       0.900
Cl       15.895760       7.947880       2.809999      -0.900
Na       15.895760       7.947880       0.000000       0.900
Cl       17.882730      9.9348500       5.619999      -0.900
Na       17.882730      9.9348500       2.809999       0.900
Cl       17.882730      9.9348500       0.000000      -0.900
Na       19.869700       7.947880       5.619999       0.900
Cl       19.869700       7.947880       2.809999      -0.900
Na       19.869700       7.947880       0.000000       0.900
Cl       21.856670      9.9348500       5.619999      -0.900
Na       21.856670      9.9348500       2.809999       0.900
Cl       21.856670      9.9348500       0.000000      -0.900
Na       23.843640       7.947880       5.619999       0.900
Cl       23.843640       7.947880       2.809999      -0.900
Na       23.843640       7.947880       0.000000       0.900
Cl       25.830610      9.9348500       5.619999      -0.900
Na       25.830610      9.9348500       2.809999       0.900
Cl       25.830610      9.9348500       0.000000      -0.900
Na       27.817580       7.947880       5.619999       0.900
Cl       27.817580       7.947880       2.809999      -0.900
Na       27.817580       7.947880       0.000000       0.900
Cl       29.804550      9.9348500       5.619999      -0.900
Na       29.804550      9.9348500       2.809999       0.900
Cl       29.804550      9.9348500       0.000000      -0.900
Na        0.000000      11.921820       5.619999       0.900
Cl        0.000000      11.921820       2.809999      -0.900
Na        0.000000      11.921820       0.000000       0.900
Cl        1.986970      13.908790       5.619999      -0.900
Na        1.986970      13.908790       2.809999       0.900
Cl        1.986970      13.908790       0.000000      -0.900
Na        3.973940      11.921820       5.619999       0.900
Cl        3.973940      11.921820       2.809999      -0.900
Na        3.973940      11.921820       0.000000       0.900
Cl        5.960910      13.908790       5.619999      -0.900
Na        5.960910      13.908790       2.809999       0.900
Cl        5.960910      13.908790       0.000000      -0.900
Na        7.947880      11.921820       5.619999       0.900
Cl        7.947880      11.921820       2.809999      -0.900
Na        7.947880      11.921820       0.000000       0.900
Cl       9.9348500      13.908790       5.619999      -0.900
Na       9.9348500      13.908790       2.809999       0.900
Cl       9.9348500      13.908790       0.000000      -0.900
Na       11.921820      11.921820       5.619999       0.900
Cl       11.921820      11.921820       2.809999      -0.900
Na       11.921820      11.921820       0.000000       0.900
Cl       13.908790      13.908790       5.619999      -0.900
Na       13.908790      13.908790       2.809999       0.900
Cl       13.908790      13.908790       0.000000      -0.900
Na       15.895760      11.921820       5.619999       0.900
Cl       15.895760      11.921820       2.809999      -0.900
Na       15.895760      11.921820       0.000000       0.900
Cl       17.882730      13.908790       5.619999      -0.900
Na       17.882730      13.908790       2.809999       0.900
Cl       17.882730      13.908790       0.000000      -0.900
Na       19.869700      11.921820       5.619999       0.900
Cl       19.869700      11.921820       2.809999      -0.900
Na       19.869700      11.921820       0.000000       0.900
Cl       21.856670      13.908790       5.619999      -0.900
Na       21.856670      13.908790       2.809999       0.900
Cl       21.856670      13.908790       0.000000      -0.900
Na       23.843640      11.921820       5.619999       0.900
Cl       23.843640      11.921820       2.809999      -0.900
Na       23.843640      11.921820       0.000000       0.900
Cl       25.830610      13.908790       5.619999      -0.900
Na       25.830610      13.908790       2.809999       0.900
Cl       25.830610      13.908790       0.000000      -0.900
Na       27.817580      11.921820       5.619999       0.900
Cl       27.817580      11.921820       2.809999      -0.900
Na       27.817580      11.921820       0.000000       0.900
Cl       29.804550      13.908790       5.619999      -0.900
Na       29.804550      13.908790       2.809999       0.900
Cl       29.804550      13.908790       0.000000      -0.900
Na        0.000000      15.895760       5.619999       0.900
Cl        0.000000      15.895760       2.809999      -0.900
Na        0.000000      15.895760       0.000000       0.900
Cl        1.986970      17.882730       5.619999      -0.900
Na        1.986970      17.882730       2.809999       0.900
Cl        1.986970      17.882730       0.000000      -0.900
Na        3.973940      15.895760       5.619999       0.900
Cl        3.973940      15.895760       2.809999      -0.900
Na        3.973940      15.895760       0.000000       0.900
Cl        5.960910      17.882730       5.619999      -0.900
Na        5.960910      17.882730       2.809999       0.900
Cl        5.960910      17.882730       0.000000      -0.900
Na        7.947880      15.895760       5.619999       0.900
Cl        7.947880      15.895760       2.809999      -0.900
Na        7.947880      15.895760       0.000000       0.900
Cl       9.9348500      17.882730       5.619999      -0.900
Na       9.9348500      17.882730       2.809999       0.900
Cl       9.9348500      17.882730       0.000000      -0.900
Na       11.921820      15.895760       5.619999       0.900
Cl       11.921820      15.895760       2.809999      -0.900
Na       11.921820      15.895760       0.000000       0.900
Cl       13.908790      17.882730       5.619999      -0.900
Na       13.908790      17.882730       2.809999       0.900
Cl       13.908790      17.882730       0.000000      -0.900
Na       15.895760      15.895760       5.619999       0.900
Cl       15.895760      15.895760       2.809999      -0.900
Na       15.895760      15.895760       0.000000       0.900
Cl       17.882730      17.882730       5.619999      -0.900
Na       17.882730      17.882730       2.809999       0.900
Cl       17.882730      17.882730       0.000000      -0.900
Na       19.869700      15.895760       5.619999       0.900
Cl       19.869700      15.895760       2.809999      -0.900
Na       19.869700      15.895760       0.000000       0.900
Cl       21.856670      17.882730       5.619999      -0.900
Na       21.856670      17.882730       2.809999       0.900
Cl       21.856670      17.882730       0.000000      -0.900
Na       23.843640      15.895760       5.619999       0.900
Cl       23.843640      15.895760       2.809999      -0.900
Na       23.843640      15.895760       0.000000       0.900
Cl       25.830610      17.882730       5.619999      -0.900
Na       25.830610      17.882730       2.809999       0.900
Cl       25.830610      17.882730       0.000000      -0.900
Na       27.817580      15.895760       5.619999       0.900
Cl       27.817580      15.895760       2.809999      -0.900
Na       27.817580      15.895760       0.000000       0.900
Cl       29.804550      17.882730       5.619999      -0.900
Na       29.804550      17.882730       2.809999       0.900
Cl       29.804550      17.882730       0.000000      -0.900
Na        0.000000      19.869700       5.619999       0.900
Cl        0.000000      19.869700       2.809999      -0.900
Na        0.000000      19.869700       0.000000       0.900
Cl        1.986970      21.856670       5.619999      -0.900
Na        1.986970      21.856670       2.809999       0.900
Cl        1.986970      21.856670       0.000000      -0.900
Na        3.973940      19.869700       5.619999       0.900
Cl        3.973940      19.869700       2.809999      -0.900
Na        3.973940      19.869700       0.000000       0.900
Cl        5.960910      21.856670       5.619999      -0.900
Na        5.960910      21.856670       2.809999       0.900
Cl        5.960910      21.856670       0.000000      -0.900
Na        7.947880      19.869700       5.619999       0.900
Cl        7.947880      19.869700       2.809999      -0.900
Na        7.947880      19.869700       0.000000       0.900
Cl       9.9348500      21.856670       5.619999      -0.900
Na       9.9348500      21.856670       2.809999       0.900
Cl       9.9348500      21.856670       0.000000      -0.900
Na       11.921820      19.869700       5.619999       0.900
Cl       11.921820      19.869700       2.809999      -0.900
Na       11.921820      19.869700       0.000000       0.900
Cl       13.908790      21.856670       5.619999      -0.900
Na       13.908790      21.856670       2.809999       0.900
Cl       13.908790      21.856670       0.000000      -0.900
Na       15.895760      19.869700       5.619999       0.900
Cl       15.895760      19.869700       2.809999      -0.900
Na       15.895760      19.869700       0.000000       0.900
Cl       17.882730      21.856670       5.619999      -0.900
Na       17.882730      21.856670       2.809999       0.900
Cl       17.882730      21.856670       0.000000      -0.900
Na       19.869700      19.869700       5.619999       0.900
Cl       19.869700      19.869700       2.809999      -0.900
Na       19.869700      19.869700       0.000000       0.900
Cl       21.856670      21.856670       5.619999      -0.900
Na       21.856670      21.856670       2.809999       0.900
Cl       21.856670      21.856670       0.000000      -0.900
Na       23.843640      19.869700       5.619999       0.900
Cl       23.843640      19.869700       2.809999      -0.900
Na       23.843640      19.869700       0.000000       0.900
Cl       25.830610      21.856670       5.619999      -0.900
Na       25.830610      21.856670       2.809999       0.900
Cl       25.830610      21.856670       0.000000      -0.900
Na       27.817580      19.869700       5.619999       0.900
Cl       27.817580      19.869700       2.809999      -0.900
Na       27.817580      19.869700       0.000000       0.900
Cl       29.804550      21.856670       5.619999      -0.900
Na       29.804550      21.856670       2.809999       0.900
Cl       29.804550      21.856670       0.000000      -0.900
Na        0.000000      23.843640       5.619999       0.900
Cl        0.000000      23.843640       2.809999      -0.900
Na        0.000000      23.843640       0.000000       0.900
Cl        1.986970      25.830610       5.619999      -0.900
Na        1.986970      25.830610       2.809999       0.900
Cl        1.986970      25.830610       0.000000      -0.900
Na        3.973940      23.843640       5.619999       0.900
Cl        3.973940      23.843640       2.809999      -0.900
Na        3.973940      23.843640       0.000000       0.900
Cl        5.960910      25.830610       5.619999      -0.900
Na        5.960910      25.830610       2.809999       0.900
Cl        5.960910      25.830610       0.000000      -0.900
Na        7.947880      23.843640       5.619999       0.900
Cl        7.947880      23.843640       2.809999      -0.900
Na        7.947880      23.843640       0.000000       0.900
Cl       9.9348500      25.830610       5.619999      -0.900
Na       9.9348500      25.830610       2.809999       0.900
Cl       9.9348500      25.830610       0.000000      -0.900
Na       11.921820      23.843640       5.619999       0.900
Cl       11.921820      23.843640       2.809999      -0.900
Na       11.921820      23.843640       0.000000       0.900
Cl       13.908790      25.830610       5.619999      -0.900
Na       13.908790      25.830610       2.809999       0.900
Cl       13.908790      25.830610       0.000000      -0.900
Na       15.895760      23.843640       5.619999       0.900
Cl       15.895760      23.843640       2.809999      -0.900
Na       15.895760      23.843640       0.000000       0.900
Cl       17.882730      25.830610       5.619999      -0.900
Na       17.882730      25.830610       2.809999       0.900
Cl       17.882730      25.830610       0.000000      -0.900
Na       19.869700      23.843640       5.619999       0.900
Cl       19.869700      23.843640       2.809999      -0.900
Na       19.869700      23.843640       0.000000       0.900
Cl       21.856670      25.830610       5.619999      -0.900
Na       21.856670      25.830610       2.809999       0.900
Cl       21.856670      25.830610       0.000000      -0.900
Na       23.843640      23.843640       5.619999       0.900
Cl       23.843640      23.843640       2.809999      -0.900
Na       23.843640      23.843640       0.000000       0.900
Cl       25.830610      25.830610       5.619999      -0.900
Na       25.830610      25.830610       2.809999       0.900
Cl       25.830610      25.830610       0.000000      -0.900
Na       27.817580      23.843640       5.619999       0.900
Cl       27.817580      23.843640       2.809999      -0.900
Na       27.817580      23.843640       0.000000       0.900
Cl       29.804550      25.830610       5.619999      -0.900
Na       29.804550      25.830610       2.809999       0.900
Cl       29.804550      25.830610       0.000000      -0.900
Na        0.000000      27.817580       5.619999       0.900
Cl        0.000000      27.817580       2.809999      -0.900
Na        0.000000      27.817580       0.000000       0.900
Cl        1.986970      29.804550       5.619999      -0.900
Na        1.986970      29.804550       2.809999       0.900
Cl        1.986970      29.804550       0.000000      -0.900
Na        3.973940      27.817580       5.619999       0.900
Cl        3.973940      27.817580       2.809999      -0.900
Na        3.973940      27.817580       0.000000       0.900
Cl        5.960910      29.804550       5.619999      -0.900
Na        5.960910      29.804550       2.809999       0.900
Cl        5.960910      29.804550       0.000000      -0.900
Na        7.947880      27.817580       5.619999       0.900
Cl        7.947880      27.817580       2.809999      -0.900
Na        7.947880      27.817580       0.000000       0.900
Cl       9.9348500      29.804550       5.619999      -0.900
Na       9.9348500      29.804550       2.809999       0.900
Cl       9.9348500      29.804550       0.000000      -0.900
Na       11.921820      27.817580       5.619999       0.900
Cl       11.921820      27.817580       2.809999      -0.900
Na       11.921820      27.817580       0.000000       0.900
Cl       13.908790      29.804550       5.619999      -0.900
Na       13.908790      29.804550       2.809999       0.900
Cl       13.908790      29.804550       0.000000      -0.900
Na       15.895760      27.817580       5.619999       0.900
Cl       15.895760      27.817580       2.809999      -0.900
Na       15.895760      27.817580       0.000000       0.900
Cl       17.882730      29.804550       5.619999      -0.900
Na       17.882730      29.804550       2.809999       0.900
Cl       17.882730      29.804550       0.000000      -0.900
Na       19.869700      27.817580       5.619999       0.900
Cl       19.869700      27.817580       2.809999      -0.900
Na       19.869700      27.817580       0.000000       0.900
Cl       21.856670      29.804550       5.619999      -0.900
Na       21.856670      29.804550       2.809999       0.900
Cl       21.856670      29.804550       0.000000      -0.900
Na       23.843640      27.817580       5.619999       0.900
Cl       23.843640      27.817580       2.809999      -0.900
Na       23.843640      27.817580       0.000000       0.900
Cl       25.830610      29.804550       5.619999      -0.900
Na       25.830610      29.804550       2.809999       0.900
Cl       25.830610      29.804550       0.000000      -0.900
Na       27.817580      27.817580       5.619999       0.900
Cl       27.817580      27.817580       2.809999      -0.900
Na       27.817580      27.817580       0.000000       0.900
Cl       29.804550      29.804550       5.619999      -0.900
Na       29.804550      29.804550       2.809999       0.900
Cl       29.804550      29.804550       0.000000      -0.900
