29

H -2.538002 -1.004410 0.924737 0.000000
C -2.526652 -0.364996 0.014352 0.000000
H 0.000341 -1.006566 0.940720 0.000000
C -0.000014 -0.368369 0.029568 0.000000
H 1.266885 1.157534 0.914775 0.000000
H 1.255871 1.140482 -0.894046 0.000000
C 3.786609 0.507588 -0.012065 0.000000
H 2.538234 -1.002847 0.925355 0.000000
C 1.262120 0.501273 0.016479 0.000000
H -1.266465 1.156612 0.916964 0.000000
H -1.256222 1.141612 -0.891924 0.000000
C -1.262194 0.501348 0.017853 0.000000
C 2.526629 -0.365009 0.013889 0.000000
C -3.786658 0.507597 -0.009729 0.000000
H -3.779281 1.148638 -0.918324 0.000000
C -5.048503 -0.349614 -0.023724 0.000000
H -3.805472 1.162229 0.888895 0.000000
H 3.779807 1.145886 -0.922498 0.000000
H 3.804817 1.164908 0.884688 0.000000
C 5.048427 -0.349546 -0.022253 0.000000
H -2.518475 -1.020942 -0.884177 0.000000
H -0.000383 -1.025622 -0.868082 0.000000
H 2.518500 -1.022643 -0.883580 0.000000
H -5.063451 -0.998359 -0.925386 0.000000
H -5.092759 -0.986195 0.885558 0.000000
H -5.943771 0.306915 -0.042976 0.000000
H 5.064251 -1.001331 -0.921612 0.000000
H 5.943861 0.307006 -0.042760 0.000000
H 5.091947 -0.983176 0.889302 0.000000
