72

C	-5.926405	0.733977	0
C	-5.933317	-0.658984	0
C	-4.720115	1.428588	0
C	-4.733193	-1.366865	0
C	-3.520342	0.723855	0
C	-3.524582	-0.678556	0
C	-2.317010	1.417386	0
C	-2.326306	-1.384408	0
C	-1.120048	0.709026	0
C	-1.123123	-0.692061	0
C	0.080401	1.403507	0
C	0.075524	-1.397889	0
C	1.275547	0.698705	0
C	1.279459	-0.701640	0
C	2.469068	1.402571	0
C	2.484788	-1.398846	0
C	3.671856	0.711224	0
C	3.684797	-0.689814	0
C	4.862825	1.425764	0
C	4.902233	-1.370135	0
C	6.075096	0.747358	0
C	6.095302	-0.647165	0
H	-6.862172	1.285383	0
H	-6.874913	-1.199799	0
H	-4.714541	2.516115	0
H	-4.741584	-2.453274	0
H	-2.304891	2.504883	0
H	-2.330193	-2.470813	0
H	0.084916	2.491318	0
H	0.070842	-2.486353	0
H	2.459478	2.490323	0
H	2.485251	-2.486332	0
H	4.842685	2.514193	0
H	4.923277	-2.455849	0
H	7.003049	1.309964	0
H	7.043960	-1.175312	0
C	-0.926405	0.733977	4
C	-0.933317	-0.658984	4
C	0.279885	1.428588	4
C	0.266807	-1.366865	4
C	1.479658	0.723855	4
C	1.475418	-0.678556	4
C	2.682990	1.417386	4
C	2.673694	-1.384408	4
C	3.879952	0.709026	4
C	3.876877	-0.692061	4
C	5.080401	1.403507	4
C	5.075524	-1.397889	4
C	6.275547	0.698705	4
C	6.279459	-0.701640	4
C	7.469068	1.402571	4
C	7.484788	-1.398846	4
C	8.671856	0.711224	4
C	8.684797	-0.689814	4
C	9.862825	1.425764	4
C	9.902233	-1.370135	4
C	11.075096	0.747358	4
C	11.095302	-0.647165	4
H	-1.862172	1.285383	4
H	-1.874913	-1.199799	4
H	0.285459	2.516115	4
H	0.258416	-2.453274	4
H	2.695109	2.504883	4
H	2.669807	-2.470813	4
H	5.084916	2.491318	4
H	5.070842	-2.486353	4
H	7.459478	2.490323	4
H	7.485251	-2.486332	4
H	9.842685	2.514193	4
H	9.923277	-2.455849	4
H	12.003049	1.309964	4
H	12.043960	-1.175312	4

