13
XYZ file generated by Avogadro.
C     -1.45367    0.55193    0.37554
C     -1.30551   -0.88436    0.27098
C      0.00378   -1.20638    0.41457
H     -2.14799   -1.54685    0.10403
C      0.68886    0.03981    0.61140
N     -0.20136    1.11123    0.58748
O      2.05530    0.09530    0.79759
O     -2.49035    1.17836    0.29454
H      0.45869   -2.19032    0.38971
C      2.90271   -1.07624    0.77310
H      3.93741   -0.76323    0.93643
H      2.60149   -1.76250    1.56923
H      2.82123   -1.56718   -0.20058
