      38
lvs       32.000       0.000       0.000       0.000      32.000       0.000       0.000       0.000      60.000
 C     2.7822441106649407        3.4172410828929261        5.6568540000000000       -5.6899999999999997E-003
 C     8.4629020876273753        3.4171385444818618        5.6568540000000000       -5.6899999999999997E-003
 C     7.0379884732830540        3.4171643128588194        5.6568540000000000        1.2380000000000000E-002
 C     4.2071577250111432        3.4172154105062558        5.6568540000000000        1.2380000000000000E-002
 C     6.3356929404476867        2.1794536834560070        5.6568540000000000        1.6310000000000002E-002
 C     4.9094085748331722        2.1794794284222085        5.6568540000000000        1.6310000000000002E-002
 C     4.9094532367843300        4.6549260645575057        5.6568540000000000        1.6310000000000002E-002
 C     6.3357376445251710        4.6549003195908654        5.6568540000000000        1.6310000000000002E-002
 C     4.1506840231503155       0.98024755489702642        5.6568540000000000       -3.8425000000000001E-002
 C     7.0943741981732789       0.98019442016196834        5.6568540000000000       -3.8425000000000001E-002
 C     4.1507719052956915        5.8541852927253117        5.6568540000000000       -3.8425000000000001E-002
 C     7.0944622699714124        5.8541321579870660        5.6568540000000000       -3.8425000000000001E-002
 C     2.7598335348294434       0.99640210598201051        5.6568540000000000       -3.2570000000000002E-002
 C     2.7599207905411163        5.8380808593850304        5.6568540000000000       -3.2570000000000002E-002
 C     8.4852252686871861       0.99629876024781439        5.6568540000000000       -3.2570000000000002E-002
 C     8.4853128025294193        5.8379775136428140        5.6568540000000000       -3.2570000000000002E-002
 C     2.0640061962022145        4.6279385829989064        5.6568540000000000        1.9990000000000001E-002
 C     2.0639625771961292        2.2065694475645934        5.6568540000000000        1.9990000000000001E-002
 C     9.1811399142052963        2.2064409791984971        5.6568540000000000        1.9990000000000001E-002
 C     9.1811837089788515        4.6278101146282165        5.6568540000000000        1.9990000000000001E-002
 C     10.589827070940085        2.2516796320805561        5.6568540000000000       0.22694000000000000     
 C     10.589869250254626        4.5825204529919255        5.6568540000000000       0.22694000000000000     
 C    0.65527705461767383        2.2518589558821063        5.6568540000000000       0.22694000000000000     
 C    0.65531902076310189        4.5826997767976057        5.6568540000000000       0.22694000000000000     
 O     11.223300570688860        3.4170885748065238        5.6568540000000000      -0.12278000000000000     
 O     2.1845627597816275E-002   3.4172907669978336        5.6568540000000000      -0.12278000000000000     
 O     11.245146419134041        5.6102781170180904        5.6568540000000000      -0.27689000000000002     
 O     11.245067022172741        1.2238982350209007        5.6568540000000000      -0.27689000000000002     
 O     7.8955266324953755E-005   5.6104810968794281        5.6568540000000000      -0.27689000000000002     
 O     0.0000000000000000        1.2241012148740857        5.6568540000000000      -0.27689000000000002     
 H     2.2272594084118360        5.1230871486861673E-002   5.6568540000000000        8.6370000000000002E-002
 H     2.2273807077902745        6.7832712766483807        5.6568540000000000        8.6370000000000002E-002
 H     9.0177652728378064        5.1108300148943187E-002   5.6568540000000000        8.6370000000000002E-002
 H     9.0178870075523125        6.7831487052956376        5.6568540000000000        8.6370000000000002E-002
 H     4.5940974634372473        3.7126300444612070E-005   5.6568540000000000        5.6320000000000002E-002
 H     4.5942207401719521        6.8343797204444883        5.6568540000000000        5.6320000000000002E-002
 H     6.6509253713757088        0.0000000000000000        5.6568540000000000        5.6320000000000002E-002
 H     6.6510488216064623        6.8343425941418534        5.6568540000000000        5.6320000000000002E-002
