38

   C      8.460736      9.700870      0.961119    0.0
   C     11.676272      3.889107      0.958080    0.0
   C      9.391591      8.577521      0.956319    0.0
   C     12.150413      5.235732      0.956060    0.0
   C      8.879125      7.226835      0.953480    0.0
   C      9.803928      6.100850      0.951800    0.0
   C     11.219312      6.358704      0.945880    0.0
   C      8.935446     11.048403      0.945498    0.0
   C     10.806843      8.835349      0.945320    0.0
   C     12.627057      2.771961      0.945019    0.0
   C     11.731363      7.709653      0.932579    0.0
   C     14.500405      4.381420      0.928359    0.0
   C     10.264659      3.653138      0.924319    0.0
   C      7.056579      9.446457      0.921079    0.0
   C      7.456229      7.025884      0.919660    0.0
   C     10.348140     11.283277      0.917400    0.0
   C      7.986501     12.165751      0.914699    0.0
   C      9.355124      4.729154      0.914160    0.0
   C      6.111767     10.553017      0.908559    0.0
   C     11.256785     10.206996      0.908120    0.0
   C     13.555310      5.488973      0.906280    0.0
   C      6.563246      8.112073      0.905699    0.0
   C     13.153859      7.910466      0.873319    0.0
   C     14.047411      6.822740      0.865199    0.0
   O     14.000075      3.084865      1.031318   -0.2
   O      6.611246     11.853327      0.959440   -0.2
   O     15.736978      4.488921      0.837521   -0.2
   O     12.372576      1.563458      0.825279   -0.2
   O      4.874570     10.445600      0.820059   -0.2
   O      8.241626     13.369424      0.801439   -0.2
   H      7.045637      6.005613      0.947120   +0.15
   H      9.897932      2.612194      0.943020   +0.15
   H      8.275515      4.509521      0.942140   +0.15
   H     12.336543     10.425948      0.938079   +0.15
   H     10.715512     12.324056      0.934680   +0.15
   H      5.466648      7.962514      0.914780   +0.15
   H     13.565891      8.930334      0.897579   +0.15
   H     15.144142      6.972851      0.869899   +0.15
