      38
lvs       32.000       0.000       0.000       0.000      32.000       0.000       0.000       0.000      60.000
 C     4.7822441106649407        5.4172410828929261        5.6568540000000000       -5.6899999999999997E-003
 C     10.462902087627375        5.4171385444818618        5.6568540000000000       -5.6899999999999997E-003
 C     9.0379884732830540        5.4171643128588194        5.6568540000000000        1.2380000000000000E-002
 C     6.2071577250111432        5.4172154105062553        5.6568540000000000        1.2380000000000000E-002
 C     8.3356929404476858        4.1794536834560070        5.6568540000000000        1.6310000000000002E-002
 C     6.9094085748331722        4.1794794284222085        5.6568540000000000        1.6310000000000002E-002
 C     6.9094532367843300        6.6549260645575057        5.6568540000000000        1.6310000000000002E-002
 C     8.3357376445251710        6.6549003195908654        5.6568540000000000        1.6310000000000002E-002
 C     6.1506840231503155        2.9802475548970264        5.6568540000000000       -3.8425000000000001E-002
 C     9.0943741981732789        2.9801944201619683        5.6568540000000000       -3.8425000000000001E-002
 C     6.1507719052956915        7.8541852927253117        5.6568540000000000       -3.8425000000000001E-002
 C     9.0944622699714124        7.8541321579870660        5.6568540000000000       -3.8425000000000001E-002
 C     4.7598335348294434        2.9964021059820105        5.6568540000000000       -3.2570000000000002E-002
 C     4.7599207905411163        7.8380808593850304        5.6568540000000000       -3.2570000000000002E-002
 C     10.485225268687186        2.9962987602478144        5.6568540000000000       -3.2570000000000002E-002
 C     10.485312802529419        7.8379775136428140        5.6568540000000000       -3.2570000000000002E-002
 C     4.0640061962022145        6.6279385829989064        5.6568540000000000        1.9990000000000001E-002
 C     4.0639625771961292        4.2065694475645934        5.6568540000000000        1.9990000000000001E-002
 C     11.181139914205296        4.2064409791984971        5.6568540000000000        1.9990000000000001E-002
 C     11.181183708978851        6.6278101146282165        5.6568540000000000        1.9990000000000001E-002
 C     12.589827070940085        4.2516796320805561        5.6568540000000000       0.22694000000000000     
 C     12.589869250254626        6.5825204529919255        5.6568540000000000       0.22694000000000000     
 C     2.6552770546176738        4.2518589558821063        5.6568540000000000       0.22694000000000000     
 C     2.6553190207631019        6.5826997767976057        5.6568540000000000       0.22694000000000000     
 O     13.223300570688860        5.4170885748065238        5.6568540000000000      -0.12278000000000000     
 O     2.0218456275978163        5.4172907669978336        5.6568540000000000      -0.12278000000000000     
 O     13.245146419134041        7.6102781170180904        5.6568540000000000      -0.27689000000000002     
 O     13.245067022172741        3.2238982350209007        5.6568540000000000      -0.27689000000000002     
 O     2.0000789552663250        7.6104810968794281        5.6568540000000000      -0.27689000000000002     
 O     2.0000000000000000        3.2241012148740857        5.6568540000000000      -0.27689000000000002     
 H     4.2272594084118360        2.0512308714868617        5.6568540000000000        8.6370000000000002E-002
 H     4.2273807077902745        8.7832712766483816        5.6568540000000000        8.6370000000000002E-002
 H     11.017765272837806        2.0511083001489432        5.6568540000000000        8.6370000000000002E-002
 H     11.017887007552313        8.7831487052956376        5.6568540000000000        8.6370000000000002E-002
 H     6.5940974634372473        2.0000371263004446        5.6568540000000000        5.6320000000000002E-002
 H     6.5942207401719521        8.8343797204444883        5.6568540000000000        5.6320000000000002E-002
 H     8.6509253713757097        2.0000000000000000        5.6568540000000000        5.6320000000000002E-002
 H     8.6510488216064623        8.8343425941418534        5.6568540000000000        5.6320000000000002E-002
