      38
lvs       32.000       0.000       0.000       0.000      32.000       0.000       0.000       0.000      60.000
C         2.874374       3.400773       5.656854         -0.00569  
C         8.599483       3.400674       5.656854         -0.00569	 
C         7.166849       3.400761       5.656854          0.01238	 
C         4.307011       3.400808       5.656854          0.01238	 
C         6.469675       2.150532       5.656854          0.01631	 
C         5.004151       2.150557       5.656854          0.01631	 
C         5.004175       4.651065       5.656854          0.01631	 
C         6.469739       4.651045       5.656854          0.01631	 
C         4.255622       0.965140       5.656854         -0.038425 
C         7.218158       0.965085       5.656854         -0.038425 
C         4.255587       5.836454       5.656854         -0.038425 
C         7.218372       5.836408       5.656854         -0.038425 
C         2.859055       0.972351       5.656854         -0.03257	 
C         2.858998       5.829170       5.656854         -0.03257	 
C         8.614726       0.972246       5.656854         -0.03257	 
C         8.614964       5.829074       5.656854         -0.03257	 
C         2.162710       4.626217       5.656854          0.01999	 
C         2.162758       2.175295       5.656854          0.01999	 
C         9.311057       2.175171       5.656854          0.01999	 
C         9.311197       4.626089       5.656854          0.01999	 
C        10.786962       2.161035       5.656854          0.22694	 
C        10.787120       4.640022       5.656854          0.22694	 
C         0.686851       2.161214       5.656854          0.22694	 
C         0.686788       4.640205       5.656854          0.22694	 
O        11.438968       3.400481       5.656854         -0.12278	 
O         0.034894       3.400688       5.656854         -0.12278	 
O        11.473946       5.637879       5.656854         -0.27689	 
O        11.473637       1.163069       5.656854         -0.27689	 
O         0.000000       5.638089       5.656854         -0.27689	 
O         0.000136       1.163277       5.656854         -0.27689	 
H         2.295137       0.039113       5.656854          0.08637	 
H         2.295036       6.762383       5.656854          0.08637	 
H         9.178611       0.038988       5.656854          0.08637	 
H         9.178960       6.762267       5.656854          0.08637	 
H         4.759375       0.000032       5.656854          0.05632	 
H         4.759283       6.801597       5.656854          0.05632	 
H         6.714362       0.000000       5.656854          0.05632	 
H         6.714707       6.801567       5.656854          0.05632	 
