22				
				
C	0.691	0.183	6.498	
C	-0.147	0.457	5.249	
C	0.691	0.183	4	
C	-0.147	0.457	2.751	
C	0.691	0.183	1.502	
O	-0.092	0.439	7.665	-0.45
O	-1.294	-0.396	5.249	-0.45
O	1.114	-1.181	4	-0.45
O	-1.294	-0.396	2.751	-0.45
O	-0.092	0.439	0.335	-0.45
H	1.566	0.834	6.498	
H	1.014	-0.858	6.498	
H	-0.47	1.498	5.249	
H	1.566	0.834	4	
H	-0.47	1.498	2.751	
H	1.566	0.834	1.502	
H	1.014	-0.858	1.502	
H	0.472	0.254	8.427	0.45
H	-0.965	-1.305	5.249	0.45
H	0.312	-1.722	4	0.45
H	-0.965	-1.305	2.751	0.45
H	0.472	0.254	-0.427	0.45

