66

C          0.69100        0.18300        2.49800
C         -0.14700        0.45700        1.24900
C          0.69100        0.18300        0.00000
C         -0.14700        0.45700       -1.24900
C          0.69100        0.18300       -2.49800
O         -0.09200        0.43900        3.66500
O         -1.29400       -0.39600        1.24900
O          1.11400       -1.18100        0.00000
O         -1.29400       -0.39600       -1.24900
O         -0.09200        0.43900       -3.66500
H          1.56600        0.83400        2.49800
H          1.01400       -0.85800        2.49800
H         -0.47000        1.49800        1.24900
H          1.56600        0.83400        0.00000
H         -0.47000        1.49800       -1.24900
H          1.56600        0.83400       -2.49800
H          1.01400       -0.85800       -2.49800
H          0.47200        0.25400        4.42700
H         -0.96500       -1.30500        1.24900
H          0.31200       -1.72200        0.00000
H         -0.96500       -1.30500       -1.24900
H          0.47200        0.25400       -4.42700
C          5.54806        2.25240       -2.92433
C          4.87656        1.72811       -1.65487
C          5.84290        1.85070       -0.47653
C          5.17141        1.32641        0.79293
C          6.13775        1.44900        1.97127
O          4.64514        2.13787       -4.02530
O          3.70027        2.49492       -1.38734
O          6.20097        3.22117       -0.29476
O          3.99511        2.09322        1.06046
O          5.51032        0.95915        3.15739
H          6.44542        1.66717       -3.12846
H          5.82150        3.29835       -2.78562
H          4.60312        0.68217       -1.79358
H          6.74026        1.26547       -0.68066
H          4.89796        0.28047        0.65422
H          7.03511        0.86377        1.76713
H          6.41119        2.49495        2.10998
H          5.10633        2.47867       -4.80255
H          3.98562        3.41123       -1.27134
H          5.38099        3.70273       -0.11696
H          4.28046        3.00953        1.17646
H          6.15139        1.05487        3.87351
C         -6.33771       -3.09167       -1.95768
C         -7.00509       -3.13380       -0.58285
C         -6.02746       -2.62476        0.47661
C         -6.69484       -2.66688        1.85144
C         -5.71721       -2.15785        2.91089
O         -7.25117       -3.56728       -2.94758
O         -8.16939       -2.30464       -0.59350
O         -5.65073       -1.28160        0.17097
O         -7.85914       -1.83773        1.84079
O         -6.34079       -2.19720        4.19546
H         -5.44950       -3.72448       -1.94950
H         -6.05002       -2.06658       -2.19096
H         -7.29278       -4.15889       -0.34956
H         -5.13925       -3.25757        0.48478
H         -6.98253       -3.69198        2.08472
H         -4.82900       -2.79066        2.91907
H         -5.42952       -1.13275        2.67761
H         -6.79226       -3.52365       -3.79638
H         -7.87161       -1.40917       -0.80321
H         -6.46308       -0.75629        0.17374
H         -7.56136       -0.94225        1.63108
H         -5.69260       -1.86871        4.83179
