22				
				
C	0.691	0.183	8.998	
C	-0.147	0.457	7.749	
C	0.691	0.183	6.5	
C	-0.147	0.457	5.251	
C	0.691	0.183	4.002	
O	-0.092	0.439	10.165	-0.45
O	-1.294	-0.396	7.749	-0.45
O	1.114	-1.181	6.5	    -0.45
O	-1.294	-0.396	5.251	-0.45
O	-0.092	0.439	2.835	-0.45
H	1.566	0.834	8.998	
H	1.014	-0.858	8.998	
H	-0.47	1.498	7.749	
H	1.566	0.834	6.5	
H	-0.47	1.498	5.251	
H	1.566	0.834	4.002	
H	1.014	-0.858	4.002	
H	0.472	0.254	10.927	0.45
H	-0.965	-1.305	7.749	0.45
H	0.312	-1.722	6.5	    0.45
H	-0.965	-1.305	5.251	0.45
H	0.472	0.254	2.073	0.45

