13
#comment 
 C   -1.061594646827    1.253461026336    0.000366974365   -0.31058 
 C    0.176495353173    1.744421026336    0.000116974365   -0.07410 
 N    1.241415353173    0.896521026336    0.000256974365   -0.18859 
 C    1.124335353173   -0.473258973664    0.000606974365    0.56418 
 N   -0.135654646827   -1.015788973664    0.000686974365   -0.50931 
 C   -1.166574646827   -0.225218973664   -0.000383025635    0.44374 
 O    2.146175353173   -1.155228973664    0.001126974365   -0.50880 
 N   -2.397574646827   -0.805988973664   -0.004233025635   -0.63647 
 H   -2.439144646827   -1.817578973664    0.008416974365    0.32862 
 H   -3.260864646827   -0.284428973664    0.011916974365    0.33488 
 H    0.388345353173    2.807651026336   -0.000573025635    0.15747 
 H   -1.951054646827    1.864531026336    0.000046974365    0.14936 
 H    2.191935353173    1.241381026336   -0.000423025635    0.24961 
