12
#comment 
 C   -0.733210334710    0.730655635840   -0.031054448869    0.38707 
 C   -1.041670334710   -0.700224364160   -0.196654448869   -0.18696 
 C    1.300929665290   -1.344594364160    0.050945551131   -0.11439 
 C   -0.023540334710   -1.718624364160   -0.152304448869   -0.12533 
 C    1.613959665290    0.001775635840    0.208565551131   -0.17777 
 H    2.632359665290    0.350245635840    0.370125551131    0.16534 
 H   -0.280490334710   -2.767444364160   -0.275424448869    0.13847 
 O   -1.547870334710    1.629185635840   -0.058244448869   -0.48088 
 N    0.580079665290    0.988425635840    0.161895551131   -0.10351 
 H    0.865539665290    1.948275635840    0.283215551131    0.24556 
 H   -2.089600334710   -0.933544364160   -0.354854448869    0.12679 
 H    2.084589665290   -2.097684364160    0.086685551131    0.12560 
